$DATA1 SOURCE='HSPICE' VERSION='L-2016.06-SP2-2 linux64'
$OPTION MEASFORM=1
$ This file format is subject to change 
$ The seperator is :@:                  
$index=1 is a nominal sample in Monte Carlo.
$option ignore_global_variation = no              
$option ignore_local_variation = no               
$option ignore_interconnect_variation = no        
$option ignore_spatial_variation = no   
$option ignore_variation = no 
$option sampling_method  = srs                  
$option normal_limit     =     2.000e+01      
$option replicates       =   1      
$option random_generator = MCG                          
$option seed             =       1  
$option stream           =   1      
$option output_sigma_value =  1     
$option use_agauss_format = yes     
$option screening_method = pearson  
$Global Variable number:        4                               
$Local Variable number:      200                                
.TITLE '******** 4-bit adder ***********'
index pmos_vtl:@:vth_pmos:@:IGNC pmos_vtl:@:toxm_pmos:@:IGNC nmos_vtl:@:toxm_nmos:@:IGNC nmos_vtl:@:vth_nmos:@:IGNC xadder_0.xxor_0.m_i_0:@:nmos_vtl:@:lmin:@:ILNC xadder_0.xxor_0.m_i_7:@:nmos_vtl:@:lmin:@:ILNC xadder_0.xxor_0.m_i_13:@:nmos_vtl:@:lmin:@:ILNC xadder_0.xxor_0.m_i_19:@:nmos_vtl:@:lmin:@:ILNC xadder_0.xxor_0.m_i_24:@:nmos_vtl:@:lmin:@:ILNC xadder_0.xxor_0.m_i_10:@:pmos_vtl:@:lmin:@:ILNC xadder_0.xxor_0.m_i_11:@:pmos_vtl:@:lmin:@:ILNC xadder_0.xxor_0.m_i_41:@:pmos_vtl:@:lmin:@:ILNC xadder_0.xxor_0.m_i_20:@:pmos_vtl:@:lmin:@:ILNC xadder_0.xxor_0.m_i_21:@:pmos_vtl:@:lmin:@:ILNC xadder_0.xand_0.m_i_2:@:nmos_vtl:@:lmin:@:ILNC xadder_0.xand_0.m_i_3:@:nmos_vtl:@:lmin:@:ILNC xadder_0.xand_0.m_i_0:@:nmos_vtl:@:lmin:@:ILNC xadder_0.xand_0.m_i_10:@:pmos_vtl:@:lmin:@:ILNC xadder_0.xand_0.m_i_11:@:pmos_vtl:@:lmin:@:ILNC xadder_0.xand_0.m_i_1:@:pmos_vtl:@:lmin:@:ILNC xadder_0.xor_0.m_i_2:@:nmos_vtl:@:lmin:@:ILNC xadder_0.xor_0.m_i_3:@:nmos_vtl:@:lmin:@:ILNC xadder_0.xor_0.m_i_0:@:nmos_vtl:@:lmin:@:ILNC xadder_0.xor_0.m_i_10:@:pmos_vtl:@:lmin:@:ILNC xadder_0.xor_0.m_i_11:@:pmos_vtl:@:lmin:@:ILNC xadder_0.xor_0.m_i_1:@:pmos_vtl:@:lmin:@:ILNC xadder_0.xxor_1.m_i_0:@:nmos_vtl:@:lmin:@:ILNC xadder_0.xxor_1.m_i_7:@:nmos_vtl:@:lmin:@:ILNC xadder_0.xxor_1.m_i_13:@:nmos_vtl:@:lmin:@:ILNC xadder_0.xxor_1.m_i_19:@:nmos_vtl:@:lmin:@:ILNC xadder_0.xxor_1.m_i_24:@:nmos_vtl:@:lmin:@:ILNC xadder_0.xxor_1.m_i_10:@:pmos_vtl:@:lmin:@:ILNC xadder_0.xxor_1.m_i_11:@:pmos_vtl:@:lmin:@:ILNC xadder_0.xxor_1.m_i_41:@:pmos_vtl:@:lmin:@:ILNC xadder_0.xxor_1.m_i_20:@:pmos_vtl:@:lmin:@:ILNC xadder_0.xxor_1.m_i_21:@:pmos_vtl:@:lmin:@:ILNC xadder_0.xand_1.m_i_2:@:nmos_vtl:@:lmin:@:ILNC xadder_0.xand_1.m_i_3:@:nmos_vtl:@:lmin:@:ILNC xadder_0.xand_1.m_i_0:@:nmos_vtl:@:lmin:@:ILNC xadder_0.xand_1.m_i_10:@:pmos_vtl:@:lmin:@:ILNC xadder_0.xand_1.m_i_11:@:pmos_vtl:@:lmin:@:ILNC xadder_0.xand_1.m_i_1:@:pmos_vtl:@:lmin:@:ILNC xadder_0.xand_2.m_i_2:@:nmos_vtl:@:lmin:@:ILNC xadder_0.xand_2.m_i_3:@:nmos_vtl:@:lmin:@:ILNC xadder_0.xand_2.m_i_0:@:nmos_vtl:@:lmin:@:ILNC xadder_0.xand_2.m_i_10:@:pmos_vtl:@:lmin:@:ILNC xadder_0.xand_2.m_i_11:@:pmos_vtl:@:lmin:@:ILNC xadder_0.xand_2.m_i_1:@:pmos_vtl:@:lmin:@:ILNC xadder_0.xor_1.m_i_2:@:nmos_vtl:@:lmin:@:ILNC xadder_0.xor_1.m_i_3:@:nmos_vtl:@:lmin:@:ILNC xadder_0.xor_1.m_i_0:@:nmos_vtl:@:lmin:@:ILNC xadder_0.xor_1.m_i_10:@:pmos_vtl:@:lmin:@:ILNC xadder_0.xor_1.m_i_11:@:pmos_vtl:@:lmin:@:ILNC xadder_0.xor_1.m_i_1:@:pmos_vtl:@:lmin:@:ILNC xadder_1.xxor_0.m_i_0:@:nmos_vtl:@:lmin:@:ILNC xadder_1.xxor_0.m_i_7:@:nmos_vtl:@:lmin:@:ILNC xadder_1.xxor_0.m_i_13:@:nmos_vtl:@:lmin:@:ILNC xadder_1.xxor_0.m_i_19:@:nmos_vtl:@:lmin:@:ILNC xadder_1.xxor_0.m_i_24:@:nmos_vtl:@:lmin:@:ILNC xadder_1.xxor_0.m_i_10:@:pmos_vtl:@:lmin:@:ILNC xadder_1.xxor_0.m_i_11:@:pmos_vtl:@:lmin:@:ILNC xadder_1.xxor_0.m_i_41:@:pmos_vtl:@:lmin:@:ILNC xadder_1.xxor_0.m_i_20:@:pmos_vtl:@:lmin:@:ILNC xadder_1.xxor_0.m_i_21:@:pmos_vtl:@:lmin:@:ILNC xadder_1.xxor_1.m_i_0:@:nmos_vtl:@:lmin:@:ILNC xadder_1.xxor_1.m_i_7:@:nmos_vtl:@:lmin:@:ILNC xadder_1.xxor_1.m_i_13:@:nmos_vtl:@:lmin:@:ILNC xadder_1.xxor_1.m_i_19:@:nmos_vtl:@:lmin:@:ILNC xadder_1.xxor_1.m_i_24:@:nmos_vtl:@:lmin:@:ILNC xadder_1.xxor_1.m_i_10:@:pmos_vtl:@:lmin:@:ILNC xadder_1.xxor_1.m_i_11:@:pmos_vtl:@:lmin:@:ILNC xadder_1.xxor_1.m_i_41:@:pmos_vtl:@:lmin:@:ILNC xadder_1.xxor_1.m_i_20:@:pmos_vtl:@:lmin:@:ILNC xadder_1.xxor_1.m_i_21:@:pmos_vtl:@:lmin:@:ILNC xadder_1.xand_0.m_i_2:@:nmos_vtl:@:lmin:@:ILNC xadder_1.xand_0.m_i_3:@:nmos_vtl:@:lmin:@:ILNC xadder_1.xand_0.m_i_0:@:nmos_vtl:@:lmin:@:ILNC xadder_1.xand_0.m_i_10:@:pmos_vtl:@:lmin:@:ILNC xadder_1.xand_0.m_i_11:@:pmos_vtl:@:lmin:@:ILNC xadder_1.xand_0.m_i_1:@:pmos_vtl:@:lmin:@:ILNC xadder_1.xand_1.m_i_2:@:nmos_vtl:@:lmin:@:ILNC xadder_1.xand_1.m_i_3:@:nmos_vtl:@:lmin:@:ILNC xadder_1.xand_1.m_i_0:@:nmos_vtl:@:lmin:@:ILNC xadder_1.xand_1.m_i_10:@:pmos_vtl:@:lmin:@:ILNC xadder_1.xand_1.m_i_11:@:pmos_vtl:@:lmin:@:ILNC xadder_1.xand_1.m_i_1:@:pmos_vtl:@:lmin:@:ILNC xadder_1.xand_2.m_i_2:@:nmos_vtl:@:lmin:@:ILNC xadder_1.xand_2.m_i_3:@:nmos_vtl:@:lmin:@:ILNC xadder_1.xand_2.m_i_0:@:nmos_vtl:@:lmin:@:ILNC xadder_1.xand_2.m_i_10:@:pmos_vtl:@:lmin:@:ILNC xadder_1.xand_2.m_i_11:@:pmos_vtl:@:lmin:@:ILNC xadder_1.xand_2.m_i_1:@:pmos_vtl:@:lmin:@:ILNC xadder_1.xor_0.m_i_2:@:nmos_vtl:@:lmin:@:ILNC xadder_1.xor_0.m_i_3:@:nmos_vtl:@:lmin:@:ILNC xadder_1.xor_0.m_i_0:@:nmos_vtl:@:lmin:@:ILNC xadder_1.xor_0.m_i_10:@:pmos_vtl:@:lmin:@:ILNC xadder_1.xor_0.m_i_11:@:pmos_vtl:@:lmin:@:ILNC xadder_1.xor_0.m_i_1:@:pmos_vtl:@:lmin:@:ILNC xadder_1.xor_1.m_i_2:@:nmos_vtl:@:lmin:@:ILNC xadder_1.xor_1.m_i_3:@:nmos_vtl:@:lmin:@:ILNC xadder_1.xor_1.m_i_0:@:nmos_vtl:@:lmin:@:ILNC xadder_1.xor_1.m_i_10:@:pmos_vtl:@:lmin:@:ILNC xadder_1.xor_1.m_i_11:@:pmos_vtl:@:lmin:@:ILNC xadder_1.xor_1.m_i_1:@:pmos_vtl:@:lmin:@:ILNC xadder_2.xxor_0.m_i_0:@:nmos_vtl:@:lmin:@:ILNC xadder_2.xxor_0.m_i_7:@:nmos_vtl:@:lmin:@:ILNC xadder_2.xxor_0.m_i_13:@:nmos_vtl:@:lmin:@:ILNC xadder_2.xxor_0.m_i_19:@:nmos_vtl:@:lmin:@:ILNC xadder_2.xxor_0.m_i_24:@:nmos_vtl:@:lmin:@:ILNC xadder_2.xxor_0.m_i_10:@:pmos_vtl:@:lmin:@:ILNC xadder_2.xxor_0.m_i_11:@:pmos_vtl:@:lmin:@:ILNC xadder_2.xxor_0.m_i_41:@:pmos_vtl:@:lmin:@:ILNC xadder_2.xxor_0.m_i_20:@:pmos_vtl:@:lmin:@:ILNC xadder_2.xxor_0.m_i_21:@:pmos_vtl:@:lmin:@:ILNC xadder_2.xxor_1.m_i_0:@:nmos_vtl:@:lmin:@:ILNC xadder_2.xxor_1.m_i_7:@:nmos_vtl:@:lmin:@:ILNC xadder_2.xxor_1.m_i_13:@:nmos_vtl:@:lmin:@:ILNC xadder_2.xxor_1.m_i_19:@:nmos_vtl:@:lmin:@:ILNC xadder_2.xxor_1.m_i_24:@:nmos_vtl:@:lmin:@:ILNC xadder_2.xxor_1.m_i_10:@:pmos_vtl:@:lmin:@:ILNC xadder_2.xxor_1.m_i_11:@:pmos_vtl:@:lmin:@:ILNC xadder_2.xxor_1.m_i_41:@:pmos_vtl:@:lmin:@:ILNC xadder_2.xxor_1.m_i_20:@:pmos_vtl:@:lmin:@:ILNC xadder_2.xxor_1.m_i_21:@:pmos_vtl:@:lmin:@:ILNC xadder_2.xand_0.m_i_2:@:nmos_vtl:@:lmin:@:ILNC xadder_2.xand_0.m_i_3:@:nmos_vtl:@:lmin:@:ILNC xadder_2.xand_0.m_i_0:@:nmos_vtl:@:lmin:@:ILNC xadder_2.xand_0.m_i_10:@:pmos_vtl:@:lmin:@:ILNC xadder_2.xand_0.m_i_11:@:pmos_vtl:@:lmin:@:ILNC xadder_2.xand_0.m_i_1:@:pmos_vtl:@:lmin:@:ILNC xadder_2.xand_1.m_i_2:@:nmos_vtl:@:lmin:@:ILNC xadder_2.xand_1.m_i_3:@:nmos_vtl:@:lmin:@:ILNC xadder_2.xand_1.m_i_0:@:nmos_vtl:@:lmin:@:ILNC xadder_2.xand_1.m_i_10:@:pmos_vtl:@:lmin:@:ILNC xadder_2.xand_1.m_i_11:@:pmos_vtl:@:lmin:@:ILNC xadder_2.xand_1.m_i_1:@:pmos_vtl:@:lmin:@:ILNC xadder_2.xand_2.m_i_2:@:nmos_vtl:@:lmin:@:ILNC xadder_2.xand_2.m_i_3:@:nmos_vtl:@:lmin:@:ILNC xadder_2.xand_2.m_i_0:@:nmos_vtl:@:lmin:@:ILNC xadder_2.xand_2.m_i_10:@:pmos_vtl:@:lmin:@:ILNC xadder_2.xand_2.m_i_11:@:pmos_vtl:@:lmin:@:ILNC xadder_2.xand_2.m_i_1:@:pmos_vtl:@:lmin:@:ILNC xadder_2.xor_0.m_i_2:@:nmos_vtl:@:lmin:@:ILNC xadder_2.xor_0.m_i_3:@:nmos_vtl:@:lmin:@:ILNC xadder_2.xor_0.m_i_0:@:nmos_vtl:@:lmin:@:ILNC xadder_2.xor_0.m_i_10:@:pmos_vtl:@:lmin:@:ILNC xadder_2.xor_0.m_i_11:@:pmos_vtl:@:lmin:@:ILNC xadder_2.xor_0.m_i_1:@:pmos_vtl:@:lmin:@:ILNC xadder_2.xor_1.m_i_2:@:nmos_vtl:@:lmin:@:ILNC xadder_2.xor_1.m_i_3:@:nmos_vtl:@:lmin:@:ILNC xadder_2.xor_1.m_i_0:@:nmos_vtl:@:lmin:@:ILNC xadder_2.xor_1.m_i_10:@:pmos_vtl:@:lmin:@:ILNC xadder_2.xor_1.m_i_11:@:pmos_vtl:@:lmin:@:ILNC xadder_2.xor_1.m_i_1:@:pmos_vtl:@:lmin:@:ILNC xadder_3.xxor_0.m_i_0:@:nmos_vtl:@:lmin:@:ILNC xadder_3.xxor_0.m_i_7:@:nmos_vtl:@:lmin:@:ILNC xadder_3.xxor_0.m_i_13:@:nmos_vtl:@:lmin:@:ILNC xadder_3.xxor_0.m_i_19:@:nmos_vtl:@:lmin:@:ILNC xadder_3.xxor_0.m_i_24:@:nmos_vtl:@:lmin:@:ILNC xadder_3.xxor_0.m_i_10:@:pmos_vtl:@:lmin:@:ILNC xadder_3.xxor_0.m_i_11:@:pmos_vtl:@:lmin:@:ILNC xadder_3.xxor_0.m_i_41:@:pmos_vtl:@:lmin:@:ILNC xadder_3.xxor_0.m_i_20:@:pmos_vtl:@:lmin:@:ILNC xadder_3.xxor_0.m_i_21:@:pmos_vtl:@:lmin:@:ILNC xadder_3.xxor_1.m_i_0:@:nmos_vtl:@:lmin:@:ILNC xadder_3.xxor_1.m_i_7:@:nmos_vtl:@:lmin:@:ILNC xadder_3.xxor_1.m_i_13:@:nmos_vtl:@:lmin:@:ILNC xadder_3.xxor_1.m_i_19:@:nmos_vtl:@:lmin:@:ILNC xadder_3.xxor_1.m_i_24:@:nmos_vtl:@:lmin:@:ILNC xadder_3.xxor_1.m_i_10:@:pmos_vtl:@:lmin:@:ILNC xadder_3.xxor_1.m_i_11:@:pmos_vtl:@:lmin:@:ILNC xadder_3.xxor_1.m_i_41:@:pmos_vtl:@:lmin:@:ILNC xadder_3.xxor_1.m_i_20:@:pmos_vtl:@:lmin:@:ILNC xadder_3.xxor_1.m_i_21:@:pmos_vtl:@:lmin:@:ILNC xadder_3.xand_0.m_i_2:@:nmos_vtl:@:lmin:@:ILNC xadder_3.xand_0.m_i_3:@:nmos_vtl:@:lmin:@:ILNC xadder_3.xand_0.m_i_0:@:nmos_vtl:@:lmin:@:ILNC xadder_3.xand_0.m_i_10:@:pmos_vtl:@:lmin:@:ILNC xadder_3.xand_0.m_i_11:@:pmos_vtl:@:lmin:@:ILNC xadder_3.xand_0.m_i_1:@:pmos_vtl:@:lmin:@:ILNC xadder_3.xand_1.m_i_2:@:nmos_vtl:@:lmin:@:ILNC xadder_3.xand_1.m_i_3:@:nmos_vtl:@:lmin:@:ILNC xadder_3.xand_1.m_i_0:@:nmos_vtl:@:lmin:@:ILNC xadder_3.xand_1.m_i_10:@:pmos_vtl:@:lmin:@:ILNC xadder_3.xand_1.m_i_11:@:pmos_vtl:@:lmin:@:ILNC xadder_3.xand_1.m_i_1:@:pmos_vtl:@:lmin:@:ILNC xadder_3.xand_2.m_i_2:@:nmos_vtl:@:lmin:@:ILNC xadder_3.xand_2.m_i_3:@:nmos_vtl:@:lmin:@:ILNC xadder_3.xand_2.m_i_0:@:nmos_vtl:@:lmin:@:ILNC xadder_3.xand_2.m_i_10:@:pmos_vtl:@:lmin:@:ILNC xadder_3.xand_2.m_i_11:@:pmos_vtl:@:lmin:@:ILNC xadder_3.xand_2.m_i_1:@:pmos_vtl:@:lmin:@:ILNC xadder_3.xor_0.m_i_2:@:nmos_vtl:@:lmin:@:ILNC xadder_3.xor_0.m_i_3:@:nmos_vtl:@:lmin:@:ILNC xadder_3.xor_0.m_i_0:@:nmos_vtl:@:lmin:@:ILNC xadder_3.xor_0.m_i_10:@:pmos_vtl:@:lmin:@:ILNC xadder_3.xor_0.m_i_11:@:pmos_vtl:@:lmin:@:ILNC xadder_3.xor_0.m_i_1:@:pmos_vtl:@:lmin:@:ILNC xadder_3.xor_1.m_i_2:@:nmos_vtl:@:lmin:@:ILNC xadder_3.xor_1.m_i_3:@:nmos_vtl:@:lmin:@:ILNC xadder_3.xor_1.m_i_0:@:nmos_vtl:@:lmin:@:ILNC xadder_3.xor_1.m_i_10:@:pmos_vtl:@:lmin:@:ILNC xadder_3.xor_1.m_i_11:@:pmos_vtl:@:lmin:@:ILNC xadder_3.xor_1.m_i_1:@:pmos_vtl:@:lmin:@:ILNC
1  0.0000000e+00  0.0000000e+00  0.0000000e+00  0.0000000e+00  0.0000000e+00  0.0000000e+00  0.0000000e+00  0.0000000e+00  0.0000000e+00  0.0000000e+00  0.0000000e+00  0.0000000e+00  0.0000000e+00  0.0000000e+00  0.0000000e+00  0.0000000e+00  0.0000000e+00  0.0000000e+00  0.0000000e+00  0.0000000e+00  0.0000000e+00  0.0000000e+00  0.0000000e+00  0.0000000e+00  0.0000000e+00  0.0000000e+00  0.0000000e+00  0.0000000e+00  0.0000000e+00  0.0000000e+00  0.0000000e+00  0.0000000e+00  0.0000000e+00  0.0000000e+00  0.0000000e+00  0.0000000e+00  0.0000000e+00  0.0000000e+00  0.0000000e+00  0.0000000e+00  0.0000000e+00  0.0000000e+00  0.0000000e+00  0.0000000e+00  0.0000000e+00  0.0000000e+00  0.0000000e+00  0.0000000e+00  0.0000000e+00  0.0000000e+00  0.0000000e+00  0.0000000e+00  0.0000000e+00  0.0000000e+00  0.0000000e+00  0.0000000e+00  0.0000000e+00  0.0000000e+00  0.0000000e+00  0.0000000e+00  0.0000000e+00  0.0000000e+00  0.0000000e+00  0.0000000e+00  0.0000000e+00  0.0000000e+00  0.0000000e+00  0.0000000e+00  0.0000000e+00  0.0000000e+00  0.0000000e+00  0.0000000e+00  0.0000000e+00  0.0000000e+00  0.0000000e+00  0.0000000e+00  0.0000000e+00  0.0000000e+00  0.0000000e+00  0.0000000e+00  0.0000000e+00  0.0000000e+00  0.0000000e+00  0.0000000e+00  0.0000000e+00  0.0000000e+00  0.0000000e+00  0.0000000e+00  0.0000000e+00  0.0000000e+00  0.0000000e+00  0.0000000e+00  0.0000000e+00  0.0000000e+00  0.0000000e+00  0.0000000e+00  0.0000000e+00  0.0000000e+00  0.0000000e+00  0.0000000e+00  0.0000000e+00  0.0000000e+00  0.0000000e+00  0.0000000e+00  0.0000000e+00  0.0000000e+00  0.0000000e+00  0.0000000e+00  0.0000000e+00  0.0000000e+00  0.0000000e+00  0.0000000e+00  0.0000000e+00  0.0000000e+00  0.0000000e+00  0.0000000e+00  0.0000000e+00  0.0000000e+00  0.0000000e+00  0.0000000e+00  0.0000000e+00  0.0000000e+00  0.0000000e+00  0.0000000e+00  0.0000000e+00  0.0000000e+00  0.0000000e+00  0.0000000e+00  0.0000000e+00  0.0000000e+00  0.0000000e+00  0.0000000e+00  0.0000000e+00  0.0000000e+00  0.0000000e+00  0.0000000e+00  0.0000000e+00  0.0000000e+00  0.0000000e+00  0.0000000e+00  0.0000000e+00  0.0000000e+00  0.0000000e+00  0.0000000e+00  0.0000000e+00  0.0000000e+00  0.0000000e+00  0.0000000e+00  0.0000000e+00  0.0000000e+00  0.0000000e+00  0.0000000e+00  0.0000000e+00  0.0000000e+00  0.0000000e+00  0.0000000e+00  0.0000000e+00  0.0000000e+00  0.0000000e+00  0.0000000e+00  0.0000000e+00  0.0000000e+00  0.0000000e+00  0.0000000e+00  0.0000000e+00  0.0000000e+00  0.0000000e+00  0.0000000e+00  0.0000000e+00  0.0000000e+00  0.0000000e+00  0.0000000e+00  0.0000000e+00  0.0000000e+00  0.0000000e+00  0.0000000e+00  0.0000000e+00  0.0000000e+00  0.0000000e+00  0.0000000e+00  0.0000000e+00  0.0000000e+00  0.0000000e+00  0.0000000e+00  0.0000000e+00  0.0000000e+00  0.0000000e+00  0.0000000e+00  0.0000000e+00  0.0000000e+00  0.0000000e+00  0.0000000e+00  0.0000000e+00  0.0000000e+00  0.0000000e+00  0.0000000e+00  0.0000000e+00  0.0000000e+00  0.0000000e+00  0.0000000e+00  0.0000000e+00  0.0000000e+00  0.0000000e+00  0.0000000e+00 
2 -8.0141818e-01 -8.2943851e-01 -2.6765104e-01  2.1497401e-01  1.6756785e+00  8.9463355e-01  2.0135289e-01  1.0447406e+00 -1.7987012e+00  2.7741962e+00  6.5598210e-01 -1.2719049e+00 -4.9369463e-01  4.4822179e-01  3.2093916e-01  1.4378578e+00 -5.1891648e-01 -3.7795091e-01  5.5178899e-01  3.4145218e-01  2.8998311e-01 -1.8411585e-01  8.4853281e-01 -7.4455310e-01 -1.2438412e+00  6.6972350e-01  6.1308113e-01 -1.1911049e+00  3.8241015e-01  9.6942907e-01 -1.8848951e+00  6.0728944e-01  8.0133398e-01  2.4511227e-01 -1.3208891e+00  8.3618313e-01 -2.4502279e+00 -1.2897167e+00  4.5265100e-01  7.2402506e-01 -7.2231596e-01 -2.1722992e-01 -5.2038118e-01 -1.5756919e+00  1.4914328e+00  1.8447691e+00 -2.5090342e-01  1.7262944e+00 -6.4707735e-01  4.2328947e-01 -1.3805524e+00 -6.9523590e-01 -9.6462257e-01  3.8295088e-01  6.6699174e-01  1.6098990e+00 -4.1265166e-01  7.4324894e-01  1.0667403e+00  5.0619337e-01 -6.8867631e-01  1.9821959e-01 -9.6925179e-01 -1.3395815e+00 -4.5541154e-01 -8.9085272e-01 -1.3938466e+00 -6.2775229e-01 -4.4966521e-01  1.4317025e+00 -2.5796062e-01  1.7744158e+00 -5.7884399e-02 -6.1332123e-01  9.2227977e-01 -1.4350289e+00 -5.7814243e-01 -5.2765741e-02  9.8775349e-01  4.3828052e-01  7.8749082e-01  5.1795762e-01 -6.7636323e-01  3.5060554e-01 -2.6375478e-01  3.7082175e-01  1.9193353e-01  6.2738566e-01 -5.3507602e-01  1.5319782e+00 -6.4537790e-01  1.4373605e+00  1.9603225e-01 -4.0509103e-01  9.2217290e-01 -2.6284254e-01  1.0165463e+00 -6.3281318e-01 -6.7841549e-01  6.2449647e-01  3.0527729e-01 -2.2492768e+00 -9.5916422e-01 -4.2148713e-02  1.6571579e-01 -5.4246423e-01 -2.1742097e+00 -5.3506417e-01  6.2555446e-01  5.1616748e-01 -1.5162986e-01  2.4311356e+00  2.4352401e-01  1.1689451e+00 -7.2253739e-01  7.1340586e-01  4.9078471e-01 -3.6986697e-01  2.5384031e-01  7.8520147e-03 -8.2477738e-01  9.5536590e-02  7.7709965e-01  8.2170381e-01 -1.6221416e-01  1.4174048e+00 -4.1496604e-01  7.0707534e-01  9.1218216e-01  1.1765201e+00  1.3912810e+00  2.2676350e+00  4.5288194e-01  3.9371268e-01 -1.7337132e-01 -1.1601604e+00 -9.5569255e-01 -4.1191190e-01 -2.1199418e+00  6.7121406e-01 -1.5754182e-01  1.5678476e-01  1.9248485e+00  1.1456720e+00  2.9977022e-01 -1.0600308e+00  4.7078009e-01 -1.5229875e+00 -6.1972520e-01 -8.8269263e-01 -9.7707950e-01 -7.3046491e-01  1.7037728e+00 -1.6127124e+00  1.7431791e+00  1.6248326e-01 -1.6403933e+00  1.3187082e+00  4.9128881e-01  5.4405474e-01 -5.4855852e-01  7.6318364e-01  5.4881693e-01 -1.8778259e-01  1.2629758e+00  1.6970232e+00 -9.3339371e-01 -2.9420893e-01 -1.6288861e-01 -1.7492616e+00 -1.3562248e+00  1.2565766e+00 -1.6025258e+00 -4.7223180e-01 -1.5919984e+00  1.4254758e+00 -3.7845022e-01 -4.3410087e-01  8.7544725e-01 -6.1138172e-01  6.0239406e-02  4.0871102e-01  4.9840727e-01 -7.7342827e-01 -7.1428474e-01 -1.2969434e+00 -6.5026299e-01 -2.2351766e-01 -2.3578090e-01 -5.8206532e-01 -9.7248133e-02  3.8922045e-01  2.1005609e-01 -4.1153727e-01 -1.0173497e+00  8.2317082e-01 -1.4750869e+00 -4.0417924e-01 -2.2827538e+00  1.1919520e+00  1.2685648e+00  4.1686368e-01 -2.3805019e-01  4.5938257e-01 
3  1.8373245e-01 -1.3037658e-01  4.1643479e-01  8.0752536e-01  1.7738035e-01 -1.3790617e+00 -1.5539402e-01 -7.6778906e-01  4.3419744e-01  5.5860176e-01  6.3974976e-01 -1.0085287e+00  1.1957548e-01  1.9416952e-01 -1.0305246e+00 -1.3496590e+00  8.5211052e-01 -5.2623012e-01  1.5742737e+00 -2.7567898e-01 -8.0097786e-01 -1.3015613e+00 -1.4927226e+00  3.6025919e-01 -8.2794503e-01 -8.6106350e-01  2.9551714e-01 -6.3863421e-01 -2.7487891e+00  5.7180489e-01  1.0946162e+00  1.2164007e+00 -8.3574313e-01 -1.1888345e+00  7.2256550e-01 -1.1638710e+00 -5.5762975e-01  9.9787040e-01  1.0142887e+00  1.0028861e+00  1.2414691e+00  4.7615144e-01  5.1947371e-01  4.4168389e-01  5.6743803e-01  4.1771733e-01  6.8971709e-01 -3.5264958e+00  2.8773895e+00 -1.0837631e+00 -5.5038577e-01 -2.2505405e+00 -4.3832550e-01 -3.1246997e-01 -6.6425476e-01 -1.1816471e+00  1.7385317e+00  3.5634004e-01  2.3771847e+00  8.0271213e-01 -8.6608566e-01  1.9168686e+00 -3.5143456e-01  9.5569834e-01 -2.3956073e+00  4.6571071e-01  1.9580958e+00 -1.6238369e+00  3.7698759e-01  2.8888768e-01  1.2459252e+00 -1.6236147e-03  1.0236868e+00  1.9010942e+00 -3.1952568e-01 -1.4810599e+00 -8.8043870e-01 -5.6022642e-01 -4.3928160e-01 -8.3065899e-01  1.3217381e+00  1.4492507e+00 -2.1259639e-02  6.3687893e-01  2.5170808e-01  1.3022899e+00  8.9401431e-01  2.0131294e+00  7.5216298e-01  4.1979014e-01  2.3018627e-01  1.8744395e+00 -1.1594668e+00  4.1497518e-01  7.4867984e-01 -4.6947219e-01  1.7266834e-01  1.3920211e+00  3.0715326e-01 -4.6058501e-01  1.3190681e+00 -3.8042066e-01 -4.3555801e-02 -1.3327078e+00  1.0309960e+00  3.6344775e-01 -4.2188107e-01 -9.7829267e-01  2.1757519e+00 -1.7272242e+00  3.2352727e-01  1.8672181e+00 -1.7681662e-01  1.2381422e+00 -3.8137203e-01 -3.1059750e-01 -1.9975579e+00 -9.4355182e-01  1.3208926e+00  3.3130311e-01 -1.6902083e-01  8.0405287e-01 -2.1693539e+00  2.0830441e-01 -8.2193468e-01  7.9204150e-01 -5.2714604e-01 -6.9057574e-01  7.2486561e-02  9.5100827e-01 -2.7757494e-01 -6.6954401e-01 -1.9483629e-01  1.0380725e+00  1.9981289e+00 -3.7191655e-01  1.2708076e+00 -5.6300611e-01  7.2825273e-02 -9.5958873e-01  7.8601466e-01 -2.3193914e-01  3.3550041e-01  4.5260634e-01  3.2932592e-01  3.5002853e-02 -1.0454513e-01 -1.0357950e+00  1.4621624e+00  3.9296715e-01 -1.8317670e-01 -3.9646620e-01 -1.4631896e-01  6.3259488e-01  1.8782894e-01  5.7885250e-01 -5.0521124e-01  1.8733029e-01  4.2005622e-01 -2.2865118e+00  2.6969065e-01  1.1169571e+00 -7.0679250e-01  1.2105291e+00 -1.4553646e+00 -6.3190367e-01  1.4812435e+00  2.8137250e+00 -9.6206553e-01  2.6236368e-01 -5.8819889e-01  8.2687601e-01 -4.3031395e-01 -9.3140492e-02  1.5016120e+00  1.3009368e+00 -1.3479827e+00  3.3776955e-01  3.1828923e-01  7.7374469e-01  1.1105942e+00  1.3650166e+00  6.6791423e-01  6.9112292e-01 -8.0609834e-01  1.5715788e-01  4.4692860e-01 -5.6784683e-03 -1.7789662e+00 -7.4382118e-01 -1.2239552e+00 -5.0963922e-01 -9.3698663e-01  5.6693769e-01  1.3518436e+00  8.8255075e-01 -7.1761210e-01 -2.0791763e-01 -2.1547902e+00 -2.9853677e-01 -5.8645345e-01 -6.0174684e-01 -1.5586326e-01  8.3119053e-01 
4  1.2775196e+00 -6.6613493e-01  8.7860085e-02  7.5657416e-01  1.4145886e+00  4.0813342e-01  2.0628743e+00  1.3522642e+00  1.0694338e+00  1.6466749e+00 -7.4177003e-01  1.5058856e+00  3.8944473e-01  1.6697032e+00  1.5487080e-01 -5.9780798e-01  5.6246374e-01 -6.2881066e-01  1.2171354e+00  7.4125240e-01 -8.0453153e-01  6.2556539e-01 -1.6896113e+00 -8.7673323e-01 -1.5392275e+00 -7.1404737e-01  5.5438196e-01  3.2663816e-01 -5.6025778e-01  1.0344334e+00 -1.5931195e+00 -4.6937125e-01 -1.0141565e+00 -8.4556894e-01  1.4729353e-01  3.5734765e-01  1.3100491e-02 -1.2136408e+00 -2.0689597e-02  1.9081350e+00 -2.2428273e+00 -1.4404895e+00  1.1511847e+00  1.5614124e-02 -1.2386366e-01 -2.1537398e-01  4.2923923e-01 -6.0612058e-01  4.5190713e-01  1.0419899e+00 -1.2107968e-01 -5.6502192e-01 -2.6989959e+00 -1.6875040e-01 -9.6766371e-02  7.7370141e-01 -3.4465907e-01  6.2897093e-01  1.3914090e+00 -1.3027902e+00  1.6304914e+00 -4.4942038e-02  1.3778667e-01  1.9127608e-01  4.7678997e-02 -2.7775971e+00  1.4893955e+00 -2.6986512e-01  4.3372305e-01  1.0553496e+00 -4.7092037e-01  7.6869704e-01 -8.2170596e-01  1.2295264e+00 -1.2026146e+00 -5.2049482e-01  1.0875370e+00 -5.8313995e-01 -5.6746742e-01  5.0368010e-01 -5.3416876e-01  4.7013228e-01 -5.1546685e-01  4.4416223e-01  3.7295637e-01 -4.1872481e-01  1.0182492e+00  6.2857245e-01 -1.0612442e+00 -1.1687789e+00 -4.9089557e-01 -2.9207960e-01 -1.9493995e-01 -1.2973617e-01 -1.5025461e+00 -1.2298026e-01  1.7152784e-01  3.8574830e-01  6.8885839e-01  9.0515284e-01  3.8413972e-01 -1.9263232e-03 -1.7569157e+00 -5.4905927e-01 -1.3987754e+00  1.8337749e+00 -4.7585004e-01 -7.2278520e-01  8.0076823e-02  6.7182679e-02 -1.2185410e+00  1.2123951e-02  3.2749160e-01 -1.7621853e+00  1.8685455e+00  7.6500647e-01  1.7340931e+00  1.0344633e+00  4.6401308e-01 -9.2526777e-01 -5.0261320e-01  6.2852380e-01  9.6366571e-01 -1.6657065e+00 -6.8492094e-01  1.5401360e-01 -1.0213724e+00  8.0571902e-01  8.2305620e-01 -7.0543717e-01  4.5545981e-01 -1.6772522e-01  8.8417477e-01  3.3060647e-01 -2.5704226e-01 -1.9486946e+00 -4.9652457e-01  2.0074863e+00 -5.7494801e-01 -8.1184069e-01 -7.1686497e-02  1.9698090e-01  3.3783963e-01 -8.3081248e-01 -7.2994388e-01  1.0559903e+00 -6.2569794e-01 -1.8989329e+00 -1.1258410e+00  6.7397519e-01  1.1567090e+00  3.2575869e-01  1.0196631e+00  2.8552403e-01 -2.9617505e-01 -2.4748815e-01  2.2169621e+00  4.3647352e-01  8.7358718e-01 -7.0633315e-01  2.1085395e-01 -3.6170816e-02 -7.2345392e-01  8.2974006e-02  4.4889281e-01  1.1168607e-01  1.1054424e+00  8.3447652e-01  3.5869774e-01 -9.0500099e-01  1.5639797e-01  1.6132455e+00  1.3245119e+00 -4.1943029e-01 -1.2862119e+00  2.1047135e+00 -1.8110890e-01  3.6615848e-01  2.8496494e-01  3.0459587e-01  1.6994845e+00 -9.9843171e-01 -7.0720218e-01  1.1676288e-02 -5.2267084e-01  3.2606595e-01 -2.5533259e-01  1.3223467e+00  3.4964115e-01  1.9659477e-01 -7.5223876e-01  3.7895109e-01  1.4045720e+00  1.0704559e+00  6.6765877e-01 -1.1330497e+00 -2.2679402e-02 -2.2682601e-01  1.3158732e+00  1.7384973e-01  1.2931003e+00 -6.7031485e-01 -1.3070160e+00  8.9941484e-01 
5 -2.6677957e-01  1.0950353e+00 -3.0119194e-01  1.1969108e+00  6.7166087e-01 -3.0766093e-01  8.0088951e-01  5.1432152e-01 -7.9552371e-01  1.1537088e+00 -1.7000645e-01 -1.7720181e+00 -2.7327079e+00 -5.6651481e-01  2.0346482e-01  5.6504233e-01 -1.5085440e-01  1.0744199e+00 -7.7288364e-02 -1.1478922e+00  1.8107475e+00 -5.5404165e-02  1.5601462e+00  5.8664335e-01 -7.7934285e-01  8.4490475e-01  1.0337644e-03 -5.4659573e-01  7.0458291e-01  1.6257181e-01 -5.8760320e-01  8.1454517e-01 -9.3060080e-01 -8.4371773e-01  3.6132350e-01  2.5377170e-01 -1.4518310e+00 -9.7439979e-02 -1.0285090e+00  1.8210737e+00 -4.5920542e-01 -1.0479591e+00  9.5584245e-01 -1.5433655e+00 -8.6712689e-01 -3.9655740e-01  5.9814559e-01 -1.1394688e+00 -1.5024035e-01 -1.2118089e+00  8.1861050e-01 -1.7196743e+00 -6.6604011e-01  1.9437118e+00 -9.9979117e-01  1.2645466e+00 -5.1578550e-01  6.5343512e-01 -1.4909732e+00  8.3136993e-01  3.1426754e-01 -6.8223740e-01 -8.7677427e-01  1.1552354e+00 -2.3888389e-01 -2.3636314e+00 -2.7796328e-01  6.4292596e-01 -3.3721412e-02 -1.6528326e+00  1.6926280e+00 -4.9577525e-01 -1.5627562e+00 -1.6458769e+00 -7.9462662e-01 -6.0741629e-01  6.3218998e-01  2.7332223e-01 -8.5678075e-01  9.3314181e-01  5.0189911e-01 -2.1497574e-01  2.3440075e+00 -5.0301081e-01  1.2635006e+00  4.0097198e-01  2.7623745e-01  1.2120342e+00 -2.0567560e-01  1.5596645e-02  1.8969194e-01  1.0683955e+00  7.2571093e-01 -4.8967374e-01 -3.9026586e-01 -3.4302523e-01 -3.5391671e-02  7.7622460e-01 -1.1387293e+00  6.1924692e-03  2.0714628e-01 -8.6597669e-01 -1.8953755e+00 -1.2241546e+00  5.7926071e-01  7.6391457e-01  1.2505377e+00  4.6289202e-01  8.5045484e-01 -5.5832981e-01 -8.2926424e-01  9.3117269e-01  4.9030061e-01  7.0259112e-01  7.1085964e-01 -1.5239820e-01  8.8718001e-01 -5.3411500e-02  5.5466063e-01 -3.6243304e-01  9.4278908e-01 -5.2094737e-03 -7.0744055e-01  6.0088746e-01 -5.1817978e-01 -2.1281777e-01  1.8437268e+00  1.0850279e-01 -3.0521306e-01  1.5737420e-02 -3.7646662e-01  8.6569920e-01  3.6438642e-02 -5.6942402e-01  6.1416968e-01 -1.2838162e+00  7.4798309e-01 -6.1424442e-01  1.2724621e-02 -1.4485509e+00 -7.0877728e-02  1.7095483e-01  5.2499814e-01 -5.2078553e-01 -9.1090036e-01 -8.1747904e-02  6.5390391e-01 -1.6007481e+00  2.2690350e-01 -2.5977880e-01 -6.3900354e-01  9.0468512e-01  5.9969226e-01  7.0709375e-01  1.0746451e+00  9.5954983e-02 -4.4982965e-01  1.1014320e+00 -4.0552931e-01 -1.7248972e-01 -2.6244022e-01  9.9777473e-01 -2.0470115e-01 -1.5027042e+00  6.9475403e-01 -2.1730828e-02  4.0755787e-01  5.1505352e-01  3.6695120e-01  6.0069001e-01 -5.7586577e-01 -3.7364242e-04  1.1798243e+00  2.3817218e+00 -5.0722730e-01 -2.8072844e-02 -8.0526144e-01  3.8085373e-01 -1.5287681e-01  2.4365135e-02 -5.9753272e-01  9.6079272e-01  6.6513384e-01 -1.0657305e+00  6.9362674e-02  4.5376496e-01 -1.9643162e-01 -1.2254410e+00 -1.1649660e+00  3.0221201e-01  2.0852511e-01 -1.8885168e-01  1.5526942e-01  1.3208098e+00 -6.4914246e-01  1.4142885e+00 -1.1424326e+00  1.8289036e+00 -5.4796925e-01  1.2783932e+00  1.2087341e+00  4.9375269e-01 -4.4859663e-01  8.2286276e-01 
6 -1.1207071e+00  1.1347055e-01 -4.7494881e-01 -2.1623700e+00  6.9851172e-01  1.3083516e+00  1.4565712e+00  1.9256578e-01  1.6130961e+00 -1.3289871e+00  6.6343167e-01  1.2279655e+00  4.4302312e-01  3.0798351e-01 -5.5568058e-01  8.0382236e-01  2.0841731e+00 -9.3192119e-01  1.5327818e-01  5.4624354e-01 -4.4953666e-01  2.6521750e+00  5.2191659e-01 -3.6948540e-01 -5.5623899e-01  6.3046181e-01 -4.8957810e-01  1.4932615e+00  4.6804810e-01 -1.8180859e-02  1.4507448e+00 -1.5384509e-01  8.8519859e-01 -3.8429885e-01 -7.4010461e-02 -9.7841768e-01 -1.3157530e+00  3.3793093e-01  1.0486045e+00 -1.0557307e+00  2.2981521e-01  6.4820945e-01 -2.1448962e+00 -1.2057811e+00 -9.7876831e-01 -1.3578985e-01  9.9096952e-01 -1.1194935e+00  8.5367352e-01 -4.1155259e-01  1.6521153e-01  7.1868786e-03  1.9147100e+00  1.9171322e-01  4.3016333e-01  7.3109834e-01  1.0233249e-01 -5.0238533e-01  2.8214389e+00  2.0110114e+00 -1.1035159e+00 -2.6775056e+00  4.2965966e-01 -1.7399225e+00  3.0217618e-01 -1.7405311e+00  6.9359907e-01  4.0747843e-01 -1.1579357e-02 -3.4919903e-01  9.3405072e-01 -1.3970695e+00 -2.1531133e-01  2.3632414e+00 -1.1949506e-01  2.9976070e-01  5.3292169e-01  6.5480677e-01 -1.1461944e+00 -4.9182308e-01 -6.5436840e-01 -2.3546808e+00  7.0759682e-01 -4.4434455e-01  5.5500141e-01 -1.1949168e+00 -7.9875146e-01  4.3669486e-01 -4.1814021e-01 -1.0008918e+00  5.6005624e-01 -1.5203462e-01  2.2046892e-01  5.5952133e-01  4.3241669e-01  1.4635858e+00 -9.6803823e-01 -2.0974997e+00 -8.0691415e-01  5.4030016e-01  3.3299755e-01  6.3655615e-01  1.9227475e+00 -7.1390590e-02 -3.7919328e-01 -3.8863077e-01  7.2872978e-01  3.2625550e-01  9.5728131e-01 -1.6590244e+00  5.0986089e-01 -5.4812484e-01  1.4365567e+00 -7.5526517e-01 -8.7270876e-01  1.0940724e-01 -1.3075453e+00 -3.0372085e-01  1.5557710e+00  9.5648341e-01  3.2938655e-01 -2.9003695e-01 -1.1337588e+00 -4.8748835e-01  3.6120522e-01 -4.0703803e-01  1.4547778e+00 -1.6575533e-01  6.0368335e-01  1.2770052e+00 -7.5121817e-01 -1.0114702e+00  1.4346266e-01  8.7872740e-01 -1.8102089e+00  3.8561674e-01 -1.0403918e+00  1.1709039e+00 -4.6226858e-01 -1.8190801e+00 -7.9315487e-01 -8.8149360e-01 -3.9938441e-01  1.3187380e+00 -6.5166593e-02  1.1759085e+00  5.2522586e-01  2.8798822e-01  2.3404266e+00  1.7528876e+00 -2.3008864e+00  8.5865672e-01  5.0462840e-01  1.5450630e+00 -1.2903882e-01 -3.4849316e-01 -3.5545205e-01 -5.6088350e-01 -3.7426954e-01  2.4262743e-01 -7.0079784e-01  2.6305578e-01  1.6913290e-01  6.9435063e-01  1.1626455e+00  7.0858302e-02  2.1552372e+00 -4.2019841e-02 -1.8243880e+00  9.4730825e-02 -8.0012382e-01 -9.1276437e-02  6.9614041e-01 -9.8272640e-01 -7.0798471e-01 -1.1048596e+00  1.7893740e-02  1.9115791e-01  6.0962419e-01  3.3273126e-01  1.7243266e+00  1.5068650e+00  1.0350262e-01  1.1883032e+00  8.5175455e-01  1.7426856e+00  5.0237256e-02  1.5504805e+00  3.6458347e-01 -5.2588897e-01  5.7124550e-01 -1.2450193e+00  2.2526725e-01  3.6315623e-01  1.1028800e+00  2.7289319e-01 -7.1826501e-01 -4.2226223e-01  8.8492636e-01  1.1639323e-01  2.8307669e-01 -8.9503183e-01 -5.5359357e-01  1.6699355e-01 
7  1.2194219e+00 -1.9804445e+00 -2.4086693e-01  1.9007439e+00 -2.7145985e-01 -6.2893664e-01  3.2206490e-01  7.2144657e-01  1.6554534e-01  4.8877199e-01  9.8929139e-01  4.5541990e-01  4.1403486e-01  1.2757817e+00 -3.6665007e-01 -3.4732825e-01 -2.4616841e-01  1.9790330e+00 -3.8871725e-01 -3.7249000e-02  5.4576210e-01 -5.2455543e-01 -1.7275203e+00 -1.5931340e+00  1.8096618e+00  2.3809912e+00  5.9651917e-01  1.5202886e+00 -7.3030367e-01 -2.6698524e+00 -6.9620766e-02 -1.7849755e+00  2.1048507e+00 -2.6896214e-01 -6.2508748e-01 -2.0293249e-01  2.3215719e+00 -1.6656843e-01  5.0249175e-01 -1.6304525e-01  6.1161939e-01 -1.9320067e+00  7.4905125e-02  3.2224302e-01 -9.2732538e-01 -8.5721795e-01 -7.9314880e-01  2.3681309e+00  1.1612454e+00  6.1826154e-01 -1.3252156e+00  1.3916240e-01  8.4644322e-01  1.0275707e-01  5.0862988e-01 -3.2492956e-01 -5.1180240e-01  8.2443614e-01  3.3169605e-01  2.2448156e-01  6.1547146e-01 -9.9134533e-01 -6.0947673e-01 -2.9917688e+00 -1.0723764e-02 -4.0951533e-01  1.9128972e-02 -6.4265241e-01  8.3911621e-01  5.4224521e-01  9.1501390e-01 -1.1676129e+00  9.5291148e-01  1.0964146e+00 -5.9619024e-01  1.2080999e+00  8.0225648e-01 -1.9933503e-01  1.9562823e+00 -1.2045987e+00  1.3296191e+00 -1.6571602e+00  1.3443754e-01 -1.2517177e-01 -3.6471936e-02  1.4733030e-01 -1.2093845e+00  5.5504810e-01 -6.3517668e-01  2.0203897e-01 -2.2947848e-01 -1.2366133e+00 -1.9017319e+00  5.2243891e-01 -1.0879868e+00  8.1171025e-02 -1.6972819e+00 -3.7470646e-02 -9.7353353e-01 -3.1521863e-01  5.7529946e-01  1.1093025e+00 -7.7384416e-01  1.0793165e+00  1.9825021e+00  1.1039015e+00 -2.9363445e-01 -1.1805258e+00 -1.0846653e+00  1.5193400e+00 -6.7089316e-01 -1.5261842e+00  7.0821817e-01  1.5217147e+00 -2.3517794e-01 -4.4071041e-02 -4.1079799e-01 -1.5815750e+00 -7.0556376e-01  1.4946246e+00  7.8725457e-01  1.2975470e+00 -1.2496175e+00 -7.9422056e-01  6.7421684e-01  6.7198831e-01  9.2188271e-01 -8.8970840e-01 -6.8411032e-01 -4.5944444e-01 -5.5747521e-02  9.0004989e-02 -9.4170214e-01 -1.4900718e-01 -4.1918755e-01  2.3551343e-01 -2.1943194e-01  2.2370304e-01 -6.3125716e-01  1.3426139e+00  1.5642180e-01 -7.9612577e-01 -8.2620392e-01  1.5058166e+00  2.7647628e-01  3.8149452e-01 -1.3377384e+00 -3.9455544e-01  2.2364285e+00 -1.3917924e-01 -4.4136621e-02 -1.6075414e+00  1.0672915e-01 -1.8651664e+00  7.6641643e-01 -1.4931403e+00  2.4866281e-01 -5.7023130e-01  1.6216373e-01  1.8029277e-01  8.2486040e-01  1.2088827e+00  4.1811393e-01  4.1583319e-01 -1.4905995e+00 -1.3635630e+00  5.3370748e-01  4.3450130e-01  4.6252067e-01  6.6151674e-01 -6.1200621e-01  2.6158290e-01 -1.2775763e-01 -1.1886850e+00  6.2800088e-01  5.9586739e-02 -7.3013171e-02  1.0101269e+00  1.0485223e+00 -6.9395199e-01 -2.4611459e-01 -6.3282198e-01  1.4888892e+00 -1.0339620e+00 -5.8584004e-01 -1.7422955e-01 -2.6096980e-01  1.0271770e+00  1.1845953e+00  7.5358641e-01  2.5480923e-01 -1.4167951e+00  1.0443957e+00  1.9175714e+00 -2.8654202e-01  6.3794009e-01  1.4713086e-01 -9.6168627e-01 -1.5162769e+00  1.2712099e+00  7.2016161e-01 -3.2700315e-01 -1.0386382e+00 -4.6050178e-02 
8 -8.8941029e-01  1.2062392e-01 -5.0955933e-01 -9.0830707e-01  2.2530769e+00 -6.2255650e-02  6.9726959e-01  3.7253329e-01  9.7101862e-01 -5.5067210e-01 -9.7898168e-01  5.6234851e-01 -6.6463213e-01  2.1877304e-01  7.7701569e-01 -1.5491857e+00 -8.4979499e-01 -8.1997639e-01 -1.9274862e+00 -1.6444779e+00 -7.2604529e-02 -5.0473791e-01 -3.5911334e-01  3.6817375e-01 -3.9884357e-01 -1.8745237e+00  8.4021494e-01  6.3597351e-01 -1.0392695e+00  7.9584610e-01  1.1732629e+00 -3.2941832e-01  2.4646594e+00  2.1899586e+00 -5.6693035e-01 -2.7950131e-01 -1.4355527e+00  1.0470846e+00  1.0622106e+00  8.5583314e-02 -5.6404422e-01  1.2140681e+00 -2.2059369e-01  1.4220781e-01  1.9765193e+00 -1.2085252e+00 -8.1767830e-01 -7.6321750e-01  1.3074280e+00 -1.4827129e+00  6.8875117e-01  7.2716682e-01 -2.7847209e-01 -1.0881724e+00 -1.6487502e+00 -5.4167649e-01  7.0100721e-01  2.3254582e-01 -8.0573158e-01 -7.2666026e-01 -8.8894091e-01 -3.0911304e-01 -3.7321877e-01  9.7439101e-01  2.3868097e-01  2.5672664e-01 -4.0492670e-01 -1.8937035e+00 -1.3098054e+00 -2.0687408e-01 -2.9960656e-01 -1.3189562e+00 -8.9543399e-01 -5.8692092e-01  1.1468458e-01  3.8328510e-02 -1.7804543e+00 -6.9516920e-01  1.4816210e+00  3.9206900e-01  3.7736913e-01 -1.8216332e+00  1.1202382e+00  7.0819900e-01 -1.0364441e+00  1.1149882e+00 -7.8882585e-01  3.7126276e-01  1.4582152e-01 -2.0805852e+00  1.5468967e+00  1.3341942e-01  2.0150759e+00 -3.9866447e-01  1.9020614e+00 -5.7608912e-01 -4.7755416e-01  5.6532498e-01 -2.2466642e+00 -2.3601973e-01  9.1039649e-01  1.3878358e+00 -1.7950981e-01  1.4774202e+00 -1.3490888e-01  2.2291776e-01  1.1976621e+00 -5.8450563e-01 -1.0658840e-01  1.2522658e+00  3.8413918e-02 -6.8103301e-01  8.9206904e-01 -9.5251176e-01 -3.7704358e-01 -1.2510632e+00 -1.1292543e+00 -1.0388863e-01  2.2282118e-02 -8.7055265e-01  2.1096082e+00 -3.6927344e-01 -3.4528517e-01  3.2080185e+00 -8.9725211e-02  4.4667433e-01  8.8720281e-01 -2.2095535e-01  7.9347636e-01  2.6432368e-02 -7.8046298e-01 -6.9766309e-01 -1.3480218e+00  7.2230171e-01 -8.1456026e-01 -1.6551902e+00  8.3692459e-01  1.7548840e-01  1.1896527e-01  1.0589080e+00  2.9273690e-01  4.0039139e-01 -1.3862138e-01 -6.9299529e-01 -1.6023372e-01  4.5009349e-01  6.9023803e-01 -1.7069705e-01  5.5587012e-01 -2.1503373e-02 -1.4617352e+00  6.9359026e-01 -7.7952218e-01 -1.1619536e+00 -8.8687733e-02  1.6941659e-01 -1.2068972e+00  6.4603722e-01  6.1860292e-01  1.6948935e-01 -1.5310614e+00 -1.5596510e+00 -1.1161377e+00  1.5709480e+00  5.1407300e-01  8.0720662e-02  2.8387530e-01  1.4111086e+00  1.0101195e+00 -1.2955802e+00  2.7508037e-01 -6.5965295e-01 -1.5683692e-01 -1.0702453e+00 -9.6417432e-01 -1.4347020e+00  4.2704732e-01 -8.1198442e-01  2.8076466e+00  1.7250936e-01 -2.3088130e-01  1.0278033e+00  3.7988175e-01 -1.2613489e-01 -1.4638634e+00  3.2717121e+00 -6.7088091e-01 -8.3572794e-01 -8.7615153e-01 -1.4059984e+00 -5.5910632e-01  4.2654694e-01  3.7917824e-01  7.8668808e-01 -2.5428040e-01  2.5697496e-01  3.2182130e-01  2.7880011e-01 -1.9766052e-01 -1.2296099e+00  1.6518011e+00  2.9228739e-01  2.8670850e+00 -1.0461741e+00 
9 -1.0129526e+00 -4.8559308e-01 -4.9816175e-01  2.2435289e-01  2.0557885e-01 -1.3842793e+00 -9.6669957e-01  8.7327910e-01 -1.8871498e-01 -1.0581499e+00 -3.1611881e-01  1.0819211e+00 -6.0951903e-01  1.1020660e+00  5.7742442e-02 -1.5968753e+00 -7.5094609e-01  1.3955064e+00 -1.3767552e+00  8.5496373e-02 -1.4482987e-01  4.6734862e-01 -3.8031668e-01 -4.4363109e-01 -1.3889494e-01 -7.6972871e-01 -1.1331423e+00 -1.6918891e+00  5.6973237e-01  1.0487462e+00  5.0050048e-01 -4.3912127e-01  1.3160254e-01 -1.2632326e-01 -1.5609314e-01  1.9859863e+00  5.9754671e-01  2.7989768e-01  6.1021988e-01  1.6983124e+00  5.8254840e-01 -1.0258048e+00 -1.7311266e+00  2.4477509e-01 -1.9546959e-01  1.4629734e-01 -5.6461927e-01 -9.7832379e-01  1.5449566e+00 -5.2029201e-01  5.4303156e-01  1.8610405e-01 -3.7973133e-01  4.7748050e-01 -1.5269442e-02  1.7777191e-01 -7.3967935e-01 -1.3692218e+00  1.8436422e+00  4.3198517e-01 -4.1897604e-01 -6.3020940e-01 -3.5633561e-01  2.4702951e+00 -6.2160743e-01  3.2714956e-01 -3.1029186e-01  1.5037871e+00 -3.7805698e-01 -1.1617637e+00 -6.5607969e-01 -2.7504825e-01 -5.0889405e-01  1.5802764e-01 -8.5116896e-01 -4.3729906e-02 -5.2953211e-01  1.1594350e+00  9.6404694e-01 -1.3698983e+00 -9.4099356e-02  4.2531795e-01 -1.4722139e+00  8.7294845e-01  1.0567395e+00  6.3422040e-01 -1.0527708e+00 -5.8737653e-01 -1.5110388e+00 -9.6652467e-01 -3.0592174e-01  7.2908151e-01  1.2249172e+00  6.4512809e-01 -5.7661198e-01  1.2602543e+00 -4.4428875e-01  4.0197972e-01  5.2782051e-01  3.9492823e-01 -1.5831417e+00 -6.8405624e-01 -3.5300756e-01  1.9382178e-01 -1.2542585e+00  2.5064686e-01 -9.1703260e-01  8.3205362e-01  6.4661898e-01 -1.6386276e-01 -1.3636248e+00 -9.7037090e-01 -2.8543307e-01  1.2499977e+00  3.0326092e-01  3.6901895e-02 -4.2053304e-02 -8.3655741e-01  7.0907547e-01  1.0788904e+00  6.8513696e-01 -1.6841334e+00  6.8272871e-01 -2.3785379e+00 -1.3692792e+00 -5.1871365e-01  1.4726975e+00  4.6349006e-01  6.0321287e-01  1.0141170e-01  3.6867115e-01 -2.1934539e-01 -2.8146264e+00 -1.0130844e+00 -8.9303032e-01 -6.8492171e-02 -4.2728890e-01 -1.4242399e+00  4.8119218e-01 -1.3219894e+00 -1.2741969e+00 -1.0818661e+00 -1.1581931e-01 -7.2415730e-01  5.9404739e-01 -2.2934408e+00 -1.7423748e-01  6.1804179e-01  8.1173033e-01 -2.2968614e-01 -1.6115175e+00  2.3293151e+00 -2.2110277e+00  2.6863124e-01  1.2809914e+00  5.4566662e-01  7.4181694e-01  2.0203811e-01 -5.3443399e-01  4.2266506e-01 -1.1164595e-01  5.3737143e-01 -4.4055457e-01  3.0567068e-01  4.4372251e-01  3.7752671e-01 -3.4521210e-01  1.0577918e-01  2.8499889e+00  4.1820704e-01 -9.0402328e-01 -7.0036344e-01  6.6181966e-01 -9.7161169e-01 -1.8012087e+00  3.5481831e-01  7.9260806e-02  6.7977591e-01  1.4693142e+00 -1.3194913e+00 -3.4187417e+00 -6.2391263e-01  5.7667254e-01 -2.8324652e-02 -1.4483329e+00  9.3141430e-01 -2.9176289e-01  2.2300957e-01  2.4491346e+00 -1.8202522e+00  3.0610761e-01  3.5690468e-01 -1.4343562e+00 -5.6760357e-01  8.2626901e-01 -4.7739231e-01  2.9480783e-01 -1.8891274e+00 -1.3624825e+00 -1.3979756e+00  5.3013196e-01 -9.1745189e-01 -1.4232690e+00 -2.3952479e-02 
10  8.6230613e-01 -1.7434497e-01  4.9220448e-01  4.3703621e-01  2.3163160e-01 -1.3614992e-01  1.6637317e-02  9.2737989e-02 -1.0593085e+00  1.5552933e+00 -1.2060167e+00  1.9938160e-01 -9.3927803e-01  2.6179978e-01 -2.4732330e-01  1.0988880e+00 -1.1663024e+00  1.8904655e+00  8.6921303e-01 -7.7930537e-01 -3.4124737e-02  1.8269081e+00  1.6197164e+00 -6.2987726e-01 -3.5574765e-01  1.2922992e+00 -2.0782949e-01  7.4455663e-01  3.4816459e-01  1.9666863e+00 -1.0695584e+00 -1.8392871e-01  1.6398415e+00  5.3865204e-01 -1.6916683e+00  9.9531670e-02 -1.2703573e+00  5.3337655e-01 -2.9591359e+00  1.8651216e-01 -9.5597940e-01  8.1558100e-01  1.6103238e+00  2.2346846e+00 -1.1180141e+00  4.8884706e-01  1.5013337e-01 -1.2951277e+00 -1.1189657e+00  1.3347106e-01 -3.9440308e-02  2.5611427e-02 -8.2355360e-01  1.4975666e+00 -8.5083926e-01  1.0650741e+00 -8.0361363e-01 -1.5345001e+00  6.5367873e-01 -7.5574505e-02 -9.5212682e-01 -1.5971247e-01 -2.5930539e-01  1.2120548e+00  2.5647662e-01  2.6617418e-01 -7.4012283e-01 -7.7333876e-01 -1.9663188e+00  1.5378249e-01  2.2819861e-01  1.5227383e+00 -1.7125656e+00  1.0298527e+00  1.9138717e-01 -1.1777832e-01  6.7008402e-01  1.0187646e+00  9.6718392e-02 -1.5160711e-01  7.1954592e-01 -1.1370216e+00 -7.8957851e-01  1.8703670e+00 -1.3412761e+00  4.0015161e-01 -9.9352843e-01 -7.4471526e-01 -4.0007330e-01  1.2136022e+00  7.2752454e-01 -3.4843209e-01 -9.7300768e-01  1.3423756e+00 -8.4606273e-01  1.6786258e+00  3.5808705e-01  1.0677496e+00  3.2089329e-01  8.3623978e-02 -4.6232762e-01  1.0911001e+00 -5.6873391e-01  6.5148179e-02  2.2336427e-01 -8.2419440e-01 -7.4326035e-01 -3.7837965e-01 -1.2824766e-01  3.0704627e-01 -7.7509015e-01  1.7414183e+00  1.4775375e+00 -5.2448027e-01 -1.4892742e+00 -2.9543638e-01 -1.5699653e+00 -4.3043791e-01 -2.4060553e-01 -1.5234961e+00 -8.0585051e-01  4.0675572e-01 -1.0354232e+00  7.3064366e-01  5.2494111e-01 -2.8177603e-01  1.6783036e+00 -4.5407845e-01 -6.8499467e-01 -4.3568499e-01  4.9168156e-01 -1.4452311e+00  1.6718978e+00  6.9435064e-01  1.0284920e+00  6.3080226e-01 -3.9576026e-01  1.4268631e+00  2.6597889e+00 -6.4725728e-01 -9.0032043e-01 -1.4754301e+00 -1.2880071e-02  1.3092521e+00 -4.5095277e-01 -4.3276589e-01 -4.5695112e-01 -1.1285366e+00  2.1221499e+00  1.7489999e+00  1.2426109e+00  5.9142636e-01  1.0343565e+00 -1.7724207e-01  1.1184209e-02  1.5269126e+00  1.5666071e-01 -1.2857303e-01 -1.3186867e-02 -9.1475522e-02 -8.7681669e-01 -5.7208085e-02 -2.4777081e-01  2.5684246e-01 -1.1715304e+00 -3.9560091e-01  1.6763456e-01 -4.7489167e-01 -1.8403951e-01 -1.5514918e+00 -1.0723561e+00 -2.7871654e-01 -6.9286204e-01 -1.5907380e+00  3.0243206e-01  1.1060220e+00  1.1058456e+00  1.4582032e-01  6.5649883e-01  1.3339386e+00  1.8417227e-01 -1.3517072e+00 -3.8326956e-01 -1.7379573e-01 -2.1710403e-01 -9.3851739e-01 -1.6621417e+00 -2.0644643e-01 -1.1788270e-01 -1.5988351e+00  7.3644405e-01 -1.7308840e+00 -8.8728042e-02  1.3721177e+00  3.2421041e-01  5.5873840e-01  1.2425628e+00  3.2663767e-01  1.5677653e+00 -1.2172148e+00  1.3598678e+00  3.2897981e-01  1.0663519e+00 -2.0000852e+00 
11 -6.4898664e-01  6.8179587e-01  1.3361186e-01  1.4094270e+00 -9.9843313e-01  3.0722617e-01 -1.0205787e-01 -4.2346343e-01  4.2796767e-01  2.4837273e-02 -1.1738719e-01 -2.3153613e-01  6.8940609e-01 -1.8246755e+00  1.2820510e+00  1.8630356e-01  7.9143441e-03  1.9620420e+00 -1.1717327e+00 -3.9406852e-01  9.1394307e-01 -1.5049244e+00 -8.7231214e-01  5.4856901e-01  1.4958964e+00  2.3183075e+00  2.3476590e+00 -1.4340795e+00 -2.2562695e+00 -2.6818987e-01 -7.3717448e-01 -1.5243544e+00 -5.9686478e-01 -9.1699977e-01 -2.1484958e-01  2.4339297e+00  1.2111640e+00 -1.6330610e-02 -1.0934900e+00  1.0281547e+00  2.3500889e+00 -9.3448503e-01 -4.6688263e-01  1.5002347e+00  2.3955341e-01  4.4720224e-01  1.9254083e-01 -1.7796219e+00 -5.1126154e-01  4.2421224e-01 -1.4187320e+00 -2.0163674e-01 -3.8646217e-01  9.2499828e-01 -7.9038026e-01  5.4206511e-01  5.6161816e-01  4.3552969e-01 -7.5482187e-02 -9.8269920e-01  7.8070448e-01  1.1942985e-01  9.4271748e-01 -1.1980666e+00 -1.0603930e-01  4.8670375e-01  6.4170208e-01  6.6754936e-01  1.2796645e-01 -4.2850664e-01  6.3495059e-01  1.2550813e-01 -1.3834829e+00  8.9714844e-01 -1.2467538e-01 -9.8033468e-02 -2.0449710e-01  8.7696110e-01  1.2896652e+00  2.6866768e+00 -5.2580321e-01  2.7808783e-01 -9.1582341e-01  9.7155603e-01  1.4736068e+00 -2.8549211e-01  7.4595614e-01 -1.0462013e+00 -8.2146584e-01  4.7893671e-01  1.7272845e+00  6.5406549e-01  1.1630593e+00 -2.1881023e-01  1.2095050e+00 -5.7953416e-02  7.7640152e-02 -1.5688233e-01  1.3079525e+00  2.0014063e-02  5.2144021e-01 -3.1880003e-01  7.4530498e-01  5.9133349e-01  3.9581954e-01  1.0390771e+00  1.0121080e+00 -1.6610244e+00  9.9374628e-01 -9.4312571e-01 -9.9837616e-01 -5.0391218e-01  2.1977018e+00 -6.7395621e-01  2.4000245e+00 -1.0954178e+00  1.3746374e+00  1.1149496e-01  3.5429499e-01 -2.0499963e+00  4.2593152e-01  1.2648949e+00 -3.5244119e-01 -3.1993708e-01 -3.1173572e-01 -4.9586903e-02  8.0972679e-01  4.1014207e-01  7.2712379e-01 -1.4390257e+00  4.8576391e-01  7.1727349e-01 -3.6191045e-01 -9.8266523e-01  3.0554256e-01  1.0547608e+00 -4.0257252e-01 -5.5312348e-01  5.0449432e-01 -1.1923757e-01  9.1893332e-01 -8.0969896e-01  1.5434593e+00  2.1730698e-01 -1.9055371e+00  5.5939973e-01 -1.2873197e+00 -1.2185192e+00 -1.0608636e+00  6.0764136e-01 -8.3647568e-02 -8.6793321e-01  6.5576823e-01  1.7402318e+00 -1.7566546e+00  1.0486828e+00 -2.3111242e-01 -9.8241450e-01 -1.5606150e+00 -1.2003590e+00  1.2674744e+00  1.1070567e+00  1.0418579e-01 -2.5909247e+00 -1.9489321e+00  2.3419950e-01 -1.4846167e+00 -9.5496156e-01 -1.9508629e-01 -1.0964857e-01  3.3930540e-01 -2.4507865e-01  7.3985242e-01 -1.8358999e+00  6.9293992e-01  8.5573116e-02  2.1338463e+00  5.8324236e-01 -4.5029252e-02 -1.0730645e+00  1.3234509e+00 -2.2309965e-01 -2.7526858e-01 -2.0258217e-01  9.1274630e-01 -1.6206811e+00 -4.0984527e-01  2.8375745e-01  1.1153414e+00  9.7470481e-01  7.3848373e-01 -2.4254697e+00  2.3719914e+00  6.8565675e-01  9.6918977e-01  5.6535506e-01 -8.8773991e-01 -5.2639787e-01  1.1789228e+00  7.5343010e-01  2.8239671e-01 -1.1972351e-02 -8.7411348e-01  4.3893322e-01 
12 -1.1040192e+00 -8.0960559e-01 -1.0306969e+00  1.2101472e+00  2.0810807e+00 -9.2005468e-01 -5.0300972e-01 -1.4760622e+00 -9.3403799e-01 -1.7894072e-01  4.2743956e-01  4.6069196e-01 -2.3059251e+00 -1.5126750e-01 -2.0002108e+00  3.7227435e-01 -8.3670186e-01  8.1114018e-01  1.3985385e+00  1.8635369e+00  1.4472174e+00  1.1255927e+00  1.0491211e+00 -5.0481323e-02  2.1628627e+00 -1.2556703e+00  8.6988920e-01  3.4012635e-01  9.5044133e-01  6.7901908e-01  4.5683510e-01  4.3978860e-01  6.9165253e-01 -1.3454376e+00  2.4636964e-01 -2.4315904e-04 -4.7149024e-01 -1.8253339e+00  8.0814875e-01 -1.3324009e+00 -2.8665359e+00  2.7321280e+00  1.5884996e-01  3.2830162e-01 -2.1149092e+00  1.8514247e+00  2.1118168e-01 -6.1321110e-01  8.7453525e-01  1.4448719e+00  1.0917024e+00  1.4147703e+00  6.7860725e-01 -9.0637155e-01 -1.3265005e+00 -4.4429329e-01 -7.1111154e-01 -4.3450650e-01 -1.2739163e+00  6.7124128e-01 -5.1101150e-01 -7.7567145e-01 -2.8995587e-01 -1.4793546e-02  1.1133312e+00  1.5223173e-01 -9.7411593e-01 -8.1188225e-01  1.4417510e-01 -1.0076433e+00 -2.2209652e-01 -4.4832785e-01  3.5444613e-01 -4.9383099e-01 -2.1445831e-01 -1.1095252e+00  3.4510316e-02  8.3355613e-01 -7.7387187e-01 -9.9896404e-01 -6.2350755e-01 -1.7703021e+00  2.6581785e-01 -9.6545026e-01  9.3291706e-01 -1.4055520e+00  1.1852281e+00 -3.4741766e-02  5.0439190e-01  1.5104964e+00 -8.7481521e-01 -2.0798689e+00 -1.2892425e+00 -2.5549395e-01  3.4877100e-01 -4.1724623e-01 -6.6721643e-01 -9.5528708e-01  8.3591110e-02 -7.5863976e-01 -4.2761498e-01 -1.2145258e+00 -2.5858371e-01  1.0796210e+00  6.1135783e-02  5.8613107e-01 -6.5597313e-01  1.0467638e+00 -7.0155392e-02  6.9114190e-01  5.4613709e-01 -8.1664077e-01 -8.7214060e-01  8.5884525e-01 -4.4637496e-01 -1.5238836e+00 -6.5864388e-01  9.2373741e-01 -1.3020861e+00  1.3677250e+00  1.6959543e+00  7.3746182e-03  9.4900782e-01 -3.2246894e-01  5.9233367e-01 -1.9689195e+00  6.3045378e-01 -6.9503863e-02  4.6822916e-01  6.0696115e-01  1.0500425e-01  1.7007108e+00  5.9648934e-01  8.5177239e-01  2.3644019e+00 -1.1019295e+00  1.6439389e+00  3.0678861e-01 -8.5424836e-01 -1.2454741e+00 -2.4332669e-01  9.3052325e-01 -1.0002547e+00  1.3552857e+00 -8.4547637e-01  1.7905866e-01 -9.3460928e-01  6.5198689e-01  8.4117415e-01  1.3146201e+00 -5.7903895e-01 -1.3937973e+00 -7.3728177e-01 -3.9937300e-01  3.1684296e-01  1.5135380e+00 -9.8424750e-01 -7.3597093e-01  4.0288790e-01  2.2453580e+00 -2.6965438e-01  2.9888519e-01 -1.1863367e+00 -6.2214972e-01  2.9004585e-01 -1.2760934e+00  4.5373948e-01  6.8555164e-01  8.4009072e-01 -5.3818787e-01 -6.5368293e-01 -5.4200695e-01 -1.0704471e+00 -1.9146361e-01 -8.3527959e-01 -1.3849347e+00 -2.2104634e+00 -6.4674727e-01  1.5176959e+00 -1.4460987e-01  2.2751889e+00  5.6938203e-02 -9.5557284e-01  1.6682872e-01  2.1653988e-01  1.6852035e+00  3.8271445e-02 -1.7063392e+00 -7.5443992e-01  1.2104927e+00  7.6855323e-01  5.1662912e-01 -1.9612513e+00 -1.0447588e+00 -1.8685483e+00 -4.9411419e-01 -9.3131909e-01  5.5308071e-01 -1.1170338e+00  8.7498044e-01 -2.0331898e-01 -1.1626908e+00 -2.0923551e+00 -5.9133522e-01 
13 -2.4381476e-01 -6.7507252e-01  8.0230705e-01  8.6044835e-01 -1.4934764e-01  8.1841921e-01  1.2230431e+00 -1.0091267e+00  1.1513610e+00 -2.1483510e-01 -9.0832965e-01 -8.3688625e-01 -1.3588296e+00 -4.9095072e-01 -3.9006747e-01 -1.0628709e+00  7.8816447e-01  1.3579690e+00  5.5359477e-01  4.8327328e-01  1.6373790e+00 -1.5140556e-01  1.3891062e-01 -8.5031885e-01 -1.0158713e+00  2.9715953e-01 -4.1367392e-01 -1.5997491e+00 -6.0436071e-01  2.9818202e-01 -1.3827051e+00 -5.6110292e-01 -3.0581193e+00  1.4912879e-01 -1.7006789e-01  6.1269931e-01  3.1944186e-02  2.2474033e-01  5.5771756e-01 -1.9486145e-01 -1.4442983e-01  1.2218711e-01 -1.1318957e+00  2.7274966e-01  8.2498169e-01  2.1876930e-01 -3.3736378e-01  3.1403803e-01 -1.3630294e+00  1.1625246e-01  8.4683092e-01 -1.1314601e+00  5.5870322e-01 -1.8230120e-01  6.5094780e-01  1.2435533e+00 -5.1587381e-01  3.2620946e-01  9.9976580e-01 -5.4727421e-01  4.5127664e-01  1.7378400e+00  1.6410250e+00 -2.1938220e+00 -8.4598874e-01  1.5399424e+00 -4.7555348e-01  1.1026460e+00  7.0688311e-01  6.8609517e-01  1.6129503e+00 -8.2630522e-01 -5.0304412e-01 -9.8299130e-01  1.7965167e+00 -1.4357362e+00 -7.8033152e-01  1.4513003e+00 -1.7952905e+00  1.0387770e+00  1.4822336e+00  3.6008113e-01  3.0043961e-01 -1.0990921e+00  7.8986053e-01  5.6238808e-01  3.4419210e-01  1.0395508e+00  1.4313272e+00  2.5071878e-01  1.0242482e+00  4.8977704e-02  4.0953696e-02  6.8325803e-01  8.9209723e-02  4.5237172e-01 -4.4298825e-01  4.7546036e-01 -3.9803897e-01 -9.1542402e-01 -9.2889132e-01  8.4424292e-01 -8.4513458e-01  1.5162849e+00 -2.8888413e+00  1.1159473e+00 -1.6278010e+00  1.2367373e+00 -1.3756984e-01 -9.9328849e-01 -7.3694059e-01  6.9838301e-01 -9.9626603e-01 -8.4178851e-01 -7.2508747e-01 -5.7881678e-02  1.0403301e-01 -1.2205206e+00 -3.2623034e-01 -2.0381453e+00 -1.1997953e+00 -1.2691125e+00 -1.3575729e-01 -2.6610063e-02  7.9719247e-02  1.3169434e+00 -7.7584752e-01  2.0636645e+00 -2.2182889e-01 -1.4623631e+00  8.6877213e-01 -9.6654997e-02 -1.4412568e+00  7.5465901e-01  8.5142270e-01  1.5038373e+00  6.1198868e-01  2.4078551e-01 -1.6249351e+00 -4.6281663e-01  9.5058058e-01 -3.8963710e-01 -1.9372292e-02 -1.2098325e-01  5.3895256e-03 -3.2029331e-02  1.0663769e+00 -8.3174154e-01  1.6264929e+00  1.1107692e+00  7.5327329e-01  2.9761559e+00  1.4061533e+00 -2.7596536e-01  9.8518792e-01 -1.1976919e-01 -6.7061431e-01  3.1387557e-01  1.1333450e+00 -1.6582226e+00 -1.0310979e+00  1.4354719e+00  2.3688105e+00  1.9504511e+00  4.0322812e-01  9.6179812e-01 -3.4695402e-01  1.4544460e-02 -1.1635853e+00 -4.4983315e-01 -1.1124657e+00  2.3011169e-01  4.3925262e-01 -6.5717689e-01  3.2009693e-01 -8.5536688e-02 -9.0513486e-02 -9.8858387e-01  1.3005182e+00 -6.0696714e-01 -1.1675248e+00  3.5291271e-01  2.4939804e-01 -8.5036618e-01 -7.5271767e-01  4.0219756e-01 -1.1909963e+00  2.4700955e+00 -1.2105851e-01  3.8695634e-01 -3.0089327e+00 -1.9917399e-01 -5.5702963e-01  1.7852291e+00  4.2345287e-01  2.9867637e-01  6.4194125e-01 -1.6781671e-01 -8.6176729e-01 -8.7032761e-01 -1.0632574e+00  3.9055317e-01  1.0966350e+00 -4.3169460e-01 
14 -1.9319801e+00  1.4909526e+00  1.7016374e-01 -3.2306532e-01  1.5131379e-01 -1.9139036e+00 -5.7443383e-01 -1.6288294e-01 -9.1737973e-03 -7.1248969e-02 -5.1179156e-01 -1.5393216e+00  1.1181541e+00  4.6970558e-01  7.2261730e-01  2.2073091e+00  2.0547725e-02 -1.9466572e+00  6.3779773e-01 -2.1584728e-02  1.6475671e+00  3.2379338e-01  3.0991413e+00 -3.0589813e-01  5.6642783e-01 -1.5379949e-01 -6.1297133e-01  6.1288077e-01  1.4034658e+00 -4.2136195e-01  6.8359889e-01 -1.3379713e+00 -3.2692378e-01  5.9690541e-01 -1.4146668e+00  3.2994708e-01  9.4333233e-01 -1.2334723e+00 -6.4358177e-01  6.7348340e-01  2.5764964e+00 -1.1862917e+00  7.7463003e-01 -1.1392899e-01 -1.8255019e+00 -1.0718116e+00  3.4542012e-01  9.2730523e-01  4.8860558e-01  5.5428412e-01 -2.0169899e+00  6.9018552e-01 -7.9462357e-01 -1.2286852e+00 -1.1481827e+00 -1.7985591e+00 -1.7819935e-01  2.9002359e-02  2.4826210e+00 -1.6516582e-01  1.2163464e+00 -8.5856106e-01 -1.8822499e+00  2.2466184e-01 -1.4608962e-01 -9.9980540e-01 -1.8920741e-01  2.9628811e-01 -9.6475593e-01  1.1175740e+00  1.2728703e+00 -7.8163077e-01 -8.2067130e-01 -1.0016061e+00 -1.2244229e+00 -3.5048019e-02  4.3324074e-01  1.3833085e+00  9.6535970e-01 -8.7373533e-01 -1.6207107e+00  2.8425669e-01  2.0306835e+00 -1.8389641e-01  7.4608896e-01  2.4994296e-02 -1.1612130e+00 -1.1002684e+00 -4.6682965e-01 -3.3263965e-01  3.6182482e-01  9.1329530e-01 -5.3034751e-01  5.2918541e-01  1.2037824e+00  3.1020848e-01 -6.2620330e-01 -6.5206033e-01  1.0474788e+00 -2.7537656e+00  5.4122748e-01  1.2120578e-01  5.6539246e-01 -9.4256566e-01 -8.2648556e-01  1.1932114e-01 -1.4024950e+00 -9.6396935e-01 -7.6013914e-01  1.1950176e+00  7.4416075e-02  8.6834309e-01 -6.2942800e-01  3.1959956e-01 -1.2905092e+00 -1.2927704e+00 -8.7903502e-01 -1.1552348e+00  1.2496617e+00 -6.3198765e-02  6.3458287e-01  1.1822353e-01 -2.1270652e+00 -2.1774915e-01  5.3875381e-01  1.2113363e+00 -2.0339205e+00  3.5271493e-02  1.8696259e+00  2.4150569e+00 -6.0190305e-01  3.6649347e-01  1.8588383e+00  5.2564346e-01  7.8913152e-01 -9.6424987e-01 -6.0020111e-01 -5.5721418e-01  7.2025967e-01 -2.3738348e-01  5.9412797e-01  9.8007079e-01 -3.4961979e-01  3.4311136e-01 -8.4754203e-01 -1.3244439e-01 -1.4489137e-01 -7.7345842e-01  1.0671947e+00 -2.0949052e+00  2.1469447e+00 -3.6243414e-01 -1.8392138e+00 -1.3158723e-01 -1.2357126e-01  1.0072656e+00  6.3610815e-01 -8.3562559e-01  1.8821012e+00 -6.6253882e-01  2.2243662e-01  4.7616655e-01 -7.8941390e-01 -3.0986803e-01 -5.0091773e-01 -1.1784488e+00 -8.5122329e-01 -7.8340804e-01 -2.1209222e-01 -1.3108469e+00 -1.1155000e+00  1.9707568e+00  5.4597959e-01 -6.9798025e-01  5.4790102e-01 -7.3470352e-01  1.3554427e+00 -1.7013462e+00  6.7349225e-01 -4.1038079e-01 -2.4795557e-01 -1.0087450e+00 -1.9383403e+00 -1.3578530e+00  2.9479326e-01  2.6947957e-01  1.3798353e+00 -3.0443633e-01 -1.8229160e+00 -1.0733417e+00 -5.3935638e-01  2.2337196e-02  6.2849330e-01 -5.6528293e-01  5.2473088e-01 -7.7205631e-01  3.5178923e-01  3.1032969e-02 -4.4980977e-01 -2.1190017e-01 -1.0472623e+00 -2.4018998e+00 -6.2178314e-01 -7.4794276e-01 
15 -5.6484302e-01  5.8639358e-01  5.9136948e-01 -2.0228718e+00 -1.0949010e+00  7.7336291e-01  1.4106646e+00 -1.0911676e+00  1.3754608e+00 -5.4881803e-02 -1.0827737e+00 -7.4250101e-01  7.8471943e-01 -8.7668005e-01  3.7464438e-01 -5.5380425e-01  1.1466956e+00  1.7408018e-01 -3.3448421e-01  1.1208465e+00  2.7125458e-01  3.6006101e-01 -3.4826579e-01  4.6382566e-02 -1.0499803e+00 -3.4889053e-01 -1.4092993e+00 -1.7388337e+00  6.2079247e-01 -1.4421169e+00 -2.7912901e-01 -1.7942110e-01 -1.0820568e+00 -7.7371792e-01  5.4754391e-01 -3.1714558e-01 -1.4699880e+00 -4.3767923e-01  2.4421973e+00 -2.3764223e-01  2.2634080e+00 -1.4537405e-01 -8.2308857e-01 -3.5956574e-01  7.9412487e-01  1.3136868e+00 -5.9691637e-01 -2.1844284e-01  3.9980546e-01  7.6251429e-01 -1.2937949e+00  7.6411454e-01 -1.8751658e-01  1.1147600e+00  5.8531482e-01  1.0462136e+00 -4.8093619e-01  1.8561887e-01  1.0376083e+00 -3.0370815e-01  2.4605754e-01 -5.2086401e-01  6.9621900e-02  6.5364237e-01  1.3791816e+00 -2.3961103e+00  1.4728890e+00  1.0299529e-01  1.3020625e+00  3.6453395e-01 -4.1559125e-01 -4.9213776e-01 -9.2528697e-01  4.9675509e-01  2.3845319e-01 -1.3814765e+00 -8.7613287e-01  2.2603542e-01 -1.0594544e+00  1.9376707e-01  2.2416407e+00 -6.4406799e-02  1.0571551e-01  6.7093449e-01 -1.6568159e+00 -7.2948867e-01 -1.0903074e+00 -1.8458663e-02 -1.0665502e+00  2.1491553e-01  1.6115920e-01  4.6016234e-01 -4.8377442e-01 -7.0542311e-01 -6.1111773e-01  2.1976755e+00 -1.1667641e+00  6.2092527e-01  5.0242870e-01  1.8121054e-01 -1.2861833e+00 -4.8590223e-01 -1.1086050e-01 -4.8851457e-01 -1.0570154e+00  2.3559696e-01  7.0055882e-02 -6.2408952e-01 -7.1174178e-01  1.3163326e+00 -1.8091782e+00  3.1105451e-02  8.6480019e-01  2.4841175e+00 -1.7350075e+00  1.9840534e-01 -1.3044489e+00  1.4263254e+00  4.6896889e-01 -1.8880628e-01 -9.8203046e-01  9.3597147e-01  8.7630546e-01  4.3488264e-01 -9.5726341e-01  4.5986302e-01  5.3922951e-01 -1.9746231e-01 -7.9658174e-01  1.1979518e+00 -1.4883515e+00  8.8448999e-02 -1.2235783e+00  1.3130366e+00 -4.6495045e-01 -5.0138366e-01 -4.1921719e-01  1.9878734e-01  1.2255049e+00  1.0176179e-01  6.6599317e-02  4.5684600e-01 -7.5967383e-01 -1.1344869e+00  7.3077399e-02 -1.0387809e+00 -1.5802622e+00 -2.6183864e-01  1.8238128e-01 -5.3198033e-01  3.4341959e-01 -1.8187453e+00 -2.2691995e-01 -1.8797204e-01  4.9232794e-01 -3.7977732e-01  1.5311884e+00 -2.0670410e+00 -7.6194984e-01  2.3625825e+00 -7.4564476e-01 -9.0038290e-01 -4.8200184e-01 -2.5669476e-01  8.8563507e-01  8.7255855e-01  1.4869909e+00  4.3394133e-01  5.1330199e-01 -6.3436005e-01  1.4361953e+00 -6.1264453e-01  1.6254842e+00  1.4325606e-02 -3.1311914e-01 -1.4775496e+00  1.2906981e+00 -5.2977917e-01  1.9830003e-01  5.6799989e-02  2.2578459e-01 -4.9838664e-01 -1.1666559e+00  4.8049441e-01 -1.0087773e+00 -5.3140260e-01  3.3586983e-01  6.0482463e-01 -1.1156990e+00 -1.2274075e+00  8.8860084e-02 -5.8868530e-02  1.4014185e+00 -3.7058853e-02  3.5155738e-01 -1.1384736e+00  1.6785444e-01 -1.9243353e-01 -6.4009566e-01  1.6430788e+00  5.8043078e-02  6.4860252e-02  1.2174225e+00 -5.8182263e-01 
16 -7.7765210e-02 -6.9887183e-03 -1.8679188e-01  3.8709311e-01  8.8833888e-01 -6.0064751e-01  1.6107356e-01 -7.8311036e-01 -2.2132638e-01  1.3737630e+00  1.0901218e+00  1.2467722e-01  9.9497132e-01  7.7075731e-01 -1.6110514e+00 -3.2106378e-01  2.8642426e-01 -4.8302354e-01  1.0255253e+00 -6.7561236e-01  1.9535932e+00  1.6071059e+00  2.0262770e-01  3.6801552e-01 -8.4410012e-02  8.7881028e-02 -1.6329778e-02 -7.8325605e-01 -7.0685721e-01  8.6881873e-01 -4.1511214e-01  8.0982161e-01  1.5460042e+00  1.7044417e+00 -8.9782574e-01 -3.7422523e-01  1.9544074e+00 -2.4371757e+00  1.9891210e-02  1.0696879e-01  4.8688200e-01 -2.1555040e-01  6.7794295e-01 -9.2207183e-01 -6.8732844e-01 -9.1816975e-01 -3.6482227e-01  1.1582581e+00 -1.6505606e+00  1.0655091e+00  7.4587807e-01 -3.6742065e-01  8.9794510e-02 -4.5597177e-01  1.6743929e+00 -1.8582711e-01  1.3570724e+00  1.1786252e+00 -2.0700958e+00  3.0232643e+00 -2.3105654e-01 -2.1532364e+00 -3.0540721e-01 -1.2301996e+00  6.8123574e-01 -1.1415706e+00 -1.2279248e+00 -7.4543381e-01  2.4094896e+00  6.6836073e-01  1.0740691e+00  4.6996964e-01 -4.7030143e-01  7.8463958e-01  1.3035433e-01 -2.6171881e-01  2.9914676e-01  4.5804408e-01 -2.4371662e-01 -8.0858136e-01 -2.7119957e-01 -7.9144054e-03 -8.8921652e-01  9.7597225e-01  1.0692026e+00 -2.7442675e-01  9.2783904e-01  4.0309796e-01 -4.5335203e-01 -1.6316411e+00 -5.1035694e-01 -1.4736475e+00 -2.2758095e+00  1.7032265e-01  8.2412874e-01  7.3851794e-01  8.7599070e-01 -1.1537495e+00 -7.9824106e-01  3.1900160e-01  1.9179580e+00  1.6223773e+00  3.2360588e-01 -9.8907308e-01 -1.1887694e+00 -8.3943307e-01  3.2211998e-01 -5.7358483e-01 -2.4887355e+00 -9.6844837e-01 -8.4048762e-01 -4.3324073e-01 -1.2915100e+00  7.8090195e-01  1.0934506e+00 -6.0205338e-01  1.5768773e-01  2.0179419e-01  6.2817070e-01  1.5062777e+00 -2.6558736e-01  1.8860665e+00 -3.2823891e-01 -4.2548380e-01  2.5870342e-01 -8.0070119e-01  3.5577449e-01  1.4709353e+00  1.0386680e+00 -4.1607960e-01  7.2985440e-01  1.0967120e+00 -1.2532861e-01  1.9965848e+00 -1.0016670e+00  2.6259541e-01  1.3880086e+00 -1.4232090e+00 -6.7258858e-01 -1.4909084e+00  8.0081090e-01  6.7729573e-01 -8.7277377e-01 -3.3412121e-01 -3.1720192e-02 -7.8607505e-01 -4.6784363e-01  6.6093486e-01  2.1157914e-01 -1.3183703e+00  1.4985662e+00  5.8209375e-01  1.4284271e+00 -4.2155353e-01 -7.0482589e-01 -7.0842389e-01  1.9302359e-01 -2.5941466e-01 -7.0395841e-02  1.6552977e+00  1.0467159e+00  6.2155936e-01 -1.3760389e+00  1.8495705e-02 -1.9932159e+00  2.0696537e+00  4.1761248e-01  4.7177231e-01  1.2156842e-01 -1.7561064e+00  4.9365361e-01  1.5934235e+00  1.3074817e+00  5.6148475e-01 -1.0754484e+00  1.0941642e+00 -6.2875955e-01  8.8785004e-01  2.2505539e+00 -2.7026553e-01  6.0586324e-03  1.0919024e+00 -3.0879326e+00  7.8391876e-01  1.3149679e+00  8.7464941e-02 -4.2351321e-01 -6.6281615e-01 -1.7963555e-01 -1.3200500e+00 -1.6379600e+00 -7.0757322e-01  9.0365601e-01  1.6164021e-01 -7.2224368e-01 -1.3273523e+00  6.0827723e-01 -5.3982280e-01  5.7304507e-01 -1.0225078e+00  2.8645845e-01 -1.9271128e-01  9.3615694e-01  1.2412811e+00 
17 -2.5606317e+00  1.4702301e+00 -7.0132557e-01  6.3027217e-01  8.9174203e-01  3.9084671e-01 -3.1516253e-01 -1.8063275e+00  3.1224809e-01  8.9363163e-01  1.6160918e+00 -1.5737245e+00 -9.9361721e-01  3.6320700e-01 -1.2816680e-01 -1.2894231e+00 -3.7251214e-02 -1.5027638e+00  1.3780774e+00  2.2566607e-02  1.2383254e+00 -8.6869420e-01 -6.7807422e-01 -6.8295804e-01  8.5932829e-01  2.0460386e+00  2.5098447e-01  1.4238296e+00  4.8643635e-01  2.1021899e+00  7.4031648e-01  6.7861671e-01 -5.0993871e-01  8.7251605e-01  5.1037573e-01  5.0451854e-01  8.8790705e-02 -1.0806338e+00  2.1378941e-01 -4.7028944e-01  6.4576631e-01 -1.3617650e+00 -2.7678056e-01 -1.7987416e-01 -2.3564650e-01 -5.6663111e-01  8.4552328e-03  2.8231136e-03 -7.1728410e-01  7.6305999e-01  1.5391073e+00  8.2339238e-01 -2.5352894e-01  7.0993286e-01  1.4277623e+00 -5.5943739e-01 -1.1910847e+00 -1.0494118e+00  1.2938800e+00 -7.6566569e-01 -9.7082461e-01  2.9588421e-01 -1.5384284e-05  1.2316951e+00  1.9445998e-01  1.7197034e+00  3.7633536e-01  1.6611109e+00 -1.2091087e+00  9.7477494e-01 -1.2649229e+00 -1.6102950e+00 -8.4381418e-01  1.3879683e+00 -1.0839951e+00 -1.2024814e+00 -4.0565745e-01 -7.2038976e-01  2.0730730e+00 -2.3806087e-01 -2.3238075e+00 -1.0179093e+00  2.9451677e-02  3.7079164e-01  1.8075714e+00  4.1659845e-01 -2.2338963e+00 -5.3477885e-02 -1.0815801e+00  1.1656870e+00  1.0280257e-01 -1.1185170e+00  2.7922657e-01 -1.4368425e+00 -8.7777218e-01  1.9321116e+00 -4.0101022e-01  1.3522229e+00  1.8435937e+00 -5.7411234e-01 -7.9611095e-01  8.8414638e-01 -3.4675929e-02 -3.5451723e-02 -1.6356596e-01 -1.4376128e+00 -1.6400479e+00 -2.1792851e-01  1.1493481e+00  6.1498498e-01 -1.8533987e-02  4.7614835e-01 -3.8819772e-01  3.7539413e-01  5.5350688e-01 -1.6892702e+00  1.6751681e-01  9.0686919e-01 -8.8606431e-01 -5.4362909e-01 -1.8630443e+00  4.2510988e-01  1.0971722e+00  7.7421969e-01 -1.5217605e+00  5.0651615e-01  1.2691705e-01 -2.5332843e-01  1.6138455e+00 -2.7452802e-01 -2.1573772e+00 -8.9472553e-03  6.7214609e-01  4.0068884e-01 -1.2610302e+00 -2.3777615e-01  1.0774136e+00  9.2293581e-01  6.0806822e-01  5.8657231e-01 -5.0788163e-01  4.4443486e-01  2.6738966e-01  3.4777455e-03 -1.3120894e+00 -1.4606203e+00 -4.1376490e-01  7.5709411e-01  1.7916744e+00  1.6662807e+00  7.8052100e-01 -1.1697248e+00  1.5285038e+00 -1.9940044e-01 -7.9365189e-01  4.9141321e-01 -1.0571755e-01 -3.7052331e-01 -1.4097262e+00 -8.9970904e-01  8.1582129e-01  4.0719359e-01 -1.1484921e+00  2.7836594e-01 -4.7336568e-02 -4.6474193e-01  8.1992570e-01 -1.2930015e+00  8.4326385e-02  4.9858630e-02 -8.5863390e-01  1.0196534e+00  1.1740393e+00  1.5290273e+00  4.1378473e-01  4.1904964e-01  8.0166982e-01  1.3666233e+00 -1.0647842e-01  2.1653549e+00  1.3625328e-01 -1.1852185e+00  1.8818434e+00  2.5100780e+00 -5.0991298e-01 -6.8556109e-01  1.3481792e+00  1.0125361e+00  8.8747403e-01 -2.5955282e+00  7.8831860e-01 -1.2785074e+00  5.8682461e-01  4.7841527e-01 -8.3874224e-01 -1.4282034e+00 -4.7507115e-01 -8.6974211e-01  1.1667560e+00 -6.1307437e-01  5.9580384e-01 -1.1567706e+00 -4.3759031e-01  7.7186466e-01 
18  6.3164974e-01 -8.4586752e-01  1.5793664e+00 -4.8981629e-01  3.4664065e-01  9.3797710e-01  1.0462413e-01  1.6040308e+00 -3.0810638e-01  1.3426204e+00  3.4477025e-01 -1.7882596e+00  2.8386100e-01 -7.1225200e-01 -6.7199366e-01 -7.1804461e-01  2.6722448e-01 -1.0618868e+00  1.2292748e-01 -1.3045305e+00 -1.8099037e+00  1.9101851e+00 -2.1928630e-01  1.8186675e-01 -4.0728642e-01  9.4384534e-01  2.8917981e-01 -7.4293173e-01 -1.6260956e+00  1.4119986e+00 -4.2594853e-02 -8.5169126e-01  1.4843411e+00  6.6292291e-01 -8.8426431e-01  1.9235182e-01  1.2797764e+00 -6.8093164e-01 -1.1592722e+00 -1.9310897e+00  1.9693332e-01  1.2356611e+00  9.5717329e-01 -9.0993742e-02  4.2682917e-02  7.7619716e-01  6.2273098e-01  4.4633886e-01 -6.0901723e-01  1.2217388e+00  1.4780001e+00 -1.5035314e+00 -3.0118451e-01  1.9749647e+00  3.3512033e-01  1.6816081e+00 -8.6840674e-01  2.0819324e+00  7.9469095e-01  4.8603643e-01  1.7370274e-01 -2.2887612e+00 -5.7613908e-01 -1.3483284e+00  9.1349686e-01  1.5827765e+00 -1.7862805e+00  7.9560938e-01 -7.5980149e-01 -1.0164784e+00 -4.5305291e-01 -1.4110307e+00 -6.5809969e-01  1.2429949e+00 -4.0177507e-01 -1.4642768e+00 -1.2518537e+00  1.1223960e+00 -3.1315286e-01  1.0743109e+00 -1.4157153e-01 -6.1451999e-01  9.4651000e-01 -7.3523198e-01 -5.5328812e-01 -8.1478485e-01  9.6304204e-01 -1.0450966e+00 -1.6221646e+00  3.3508618e-01  7.6880779e-01  5.5462152e-01  6.1258607e-01 -1.1022402e+00 -4.7480311e-01 -1.5703778e+00  5.5654809e-01 -1.4175112e+00  4.4203864e-01 -1.3126710e+00  2.3508769e+00 -1.4343376e+00 -3.3918423e-01  1.0536386e-01 -4.7422559e-01  1.9826745e+00  1.9074184e-03 -5.0615232e-01 -4.4741337e-02 -1.1249866e+00  1.9945414e-01  9.4393610e-01 -9.8815995e-01  2.4475997e-01 -1.5879769e+00 -9.2573988e-02  8.2013090e-01 -7.0397884e-01 -3.2663400e-01  9.7373659e-01 -1.0960793e+00  1.0534916e+00 -1.5509452e+00 -1.1304382e-01  9.9550608e-01  2.5189227e-01  1.6971186e+00  1.5015894e+00 -4.0822802e-01 -3.8972522e-02 -1.9717707e-02 -2.9021636e-01 -7.2108815e-02  4.2214211e-01  5.9659026e-01  5.3363824e-01 -3.0776749e-02  1.8789209e+00  2.2530037e+00 -1.2693676e+00  3.2544654e-01 -3.5352716e-01  3.0280312e-01  1.4571194e+00  1.2542897e+00  9.8950682e-01 -2.2221487e-04 -1.6085336e+00 -8.5860061e-01  1.5658961e+00  2.8778017e-01  1.4382985e+00 -8.9815138e-01  7.2158349e-02  4.7912388e-01 -1.5390389e-01 -8.5888221e-01 -1.0258523e+00 -8.0806566e-01 -6.7888220e-02 -4.5870821e-01  1.5266272e+00 -4.3227685e-01  1.1949151e-01 -1.1509439e+00 -8.3351086e-01 -6.4974367e-01  4.5269287e-01 -4.9987176e-01  2.8781221e-01 -1.4350729e+00  9.0505513e-01 -1.8769531e+00 -2.2175803e-03  7.0346435e-02  5.8564939e-01  1.1226186e+00 -1.4758219e+00 -1.0231214e+00  5.2778402e-02  3.8684703e-01 -2.9273238e-01 -1.7552262e+00  1.6677896e+00 -1.3343098e+00  1.7976581e+00  2.3895067e+00 -6.6343398e-01  6.6357677e-01  8.7300571e-01 -8.5876467e-01 -1.4844101e+00 -3.4396466e-01 -1.2160002e-01 -5.2415083e-01 -6.7205224e-01 -1.6726666e+00  1.9821048e-01 -6.7741961e-01  7.2474090e-01  2.2690916e-01 -7.1600397e-02 -6.3723373e-01  5.8012110e-01 
19 -6.6811919e-01 -1.4675604e+00  4.2744042e-01 -6.7345440e-01  7.8804873e-01 -8.8540860e-01  1.7310687e+00 -8.7711702e-01  1.1989419e+00 -1.7257256e+00  2.6657928e-01  3.3938375e-01 -1.6682289e-01  4.4136841e-01 -3.6865793e-01  5.7541575e-01  7.0114504e-01  6.1407265e-01 -4.6624594e-01 -6.1042470e-02  4.6722952e-01  6.7894562e-01  2.8878601e+00  1.1168766e-01 -9.0376622e-01 -3.5974921e-01  1.3307628e+00 -1.5050900e+00 -3.4837525e-01  1.3154360e+00  2.0143088e+00  2.3148737e-01 -8.5241539e-01 -4.6930918e-01  1.9345793e+00 -6.2101399e-01  4.3233769e-01 -7.8632053e-01  2.8772750e+00 -2.3668275e-01  1.7934542e+00  1.5751223e+00  5.1263028e-01  1.6906882e+00 -5.7417600e-01  3.4023622e-01 -2.0785632e-01  2.8615525e-01  9.9611309e-02 -2.2999544e-01 -2.7976683e+00  5.7739351e-01  2.8035945e-01  7.2271842e-01 -4.4000679e-02  4.6849271e-01  1.1904698e-01  6.7067647e-01  1.0316381e-01 -9.4856890e-01 -1.6404418e+00  3.0328188e-02  3.1054641e-01 -9.6883413e-01 -3.8059602e-02 -5.7649291e-01  1.2518388e-02 -1.0844568e+00 -8.5855570e-01  3.3544120e-01 -8.0510583e-01 -3.6409848e-01  4.6820766e-01  3.7359992e-01  5.3865559e-01 -5.1738356e-01 -5.2231096e-01  1.2451597e-01  1.2167638e+00 -6.2467438e-01  1.8025567e+00  2.1230742e-02 -4.8857635e-01 -1.0927992e-01 -1.0218760e+00  4.5821092e-01  1.5203447e+00  5.5774314e-01 -4.6103940e-01 -4.7929837e-01 -8.9010008e-01 -1.2220755e+00 -1.0371762e+00  1.5632143e-01  8.8934769e-01 -8.3283344e-01  1.6697528e+00 -6.1413589e-01 -1.4082757e-01 -6.0333196e-01 -3.9343810e-02 -5.5170045e-01 -1.8599354e-01  2.9841603e-01  6.3225594e-01  2.1518191e+00  1.0174395e+00 -7.1691688e-01  7.2059435e-01  3.5631780e-01  3.4085737e-01 -3.4419291e-01 -1.1918081e+00  1.0842307e+00  2.0832623e-01 -8.0010336e-01  4.0514700e-01 -1.0461216e+00  4.4671909e-01  8.8110258e-02 -4.5560765e-01  4.8525889e-02 -9.5605630e-01  4.2074787e-01 -2.2690186e-01 -1.2268309e+00 -2.9861909e-01 -9.7495789e-01  1.5072347e+00 -5.7257658e-01 -9.2341895e-02 -1.9437876e+00  1.4823837e+00  3.5457161e-01 -1.0327923e+00  3.4066887e-01  6.0922752e-02  3.9793150e-01 -1.1360590e-01  4.4691350e-01  7.4589399e-01  6.5544394e-01 -3.6324119e-01  4.7021688e-02 -1.9697267e+00 -7.4304879e-01  3.3485580e-01  2.0750486e+00  2.9876304e-01 -7.3109507e-02  5.5133139e-01 -9.4913468e-01  1.7269460e+00 -9.5569085e-01  3.1593345e-01 -3.3697301e-01 -1.7186321e+00  1.2297227e-01 -6.9929370e-01  1.9213418e-01  2.3473014e-01 -1.5833399e+00  1.2199362e+00 -8.8979509e-01 -4.0326246e-01 -1.9733967e+00 -1.0871967e+00  6.9409186e-02  1.5478007e+00  1.1174181e+00  4.2054482e-01 -4.3091243e-01  3.7690024e-02  1.7374238e-01  1.0378423e+00 -8.4280476e-01 -1.5166775e+00  1.8244738e-01  1.2323120e+00  1.2448102e+00 -1.2488469e+00  7.9081609e-02  7.1255184e-01 -8.4603912e-01 -2.4975084e-01 -1.2740131e+00  4.7682418e-01  4.4270511e-01 -9.2088147e-01  7.6639957e-02  1.2685531e+00 -6.9295729e-01 -8.2540263e-01  3.6820980e-02  7.2789692e-01 -6.6757442e-01 -7.9932924e-01 -1.5367355e+00 -1.7139522e-01  4.6740550e-01 -5.8562966e-01 -2.6901061e-01  1.4737617e+00 -6.4704113e-02 
20 -1.1520503e+00 -1.7659806e+00 -3.5391394e-01  9.8103360e-01 -6.5476524e-01  4.8860770e-01 -3.9985037e-01  4.9102861e-01 -3.0441302e+00  2.1740507e-01 -1.0261720e+00 -2.7793925e-01 -2.7719235e-01 -1.2196911e-01  3.7088884e-01  6.9458887e-01 -2.8133429e-01 -5.7919023e-01  3.2076050e+00  4.8668499e-01  1.3945533e+00  2.1766466e-01  1.2778055e-01  9.6305132e-01  2.4315204e-01 -1.2355956e+00 -9.7107657e-01  5.4186484e-01  1.3520199e+00 -1.1880774e-01  1.8445405e-01  3.0543028e+00 -7.4151734e-01  1.1029924e+00 -4.3590322e-01  1.5363661e+00 -5.9737863e-01 -8.3729255e-01  8.4197896e-01  1.3803034e+00  8.7179446e-01  2.1358788e+00  6.3771799e-01  5.7784907e-01  2.4378833e-01 -1.5287887e+00 -1.6449749e+00  6.9967048e-01  5.7933551e-01 -5.3956083e-02  1.5944633e+00 -8.1390847e-01 -1.0723347e+00 -2.1750279e-01  6.9754084e-01  3.9600267e-01  6.1264476e-01 -1.7274195e+00 -1.5984885e+00  1.5774357e-01 -2.1656489e+00 -1.7280522e+00 -1.7206033e+00 -7.8919015e-01  2.0059746e+00  1.3157222e-01 -5.8438042e-01 -6.4149920e-01  3.9475592e-01 -1.7218153e+00  4.2957721e-01  1.2403899e+00 -4.0794988e-02 -1.3531462e+00  2.4848343e-01 -2.0487743e+00 -8.1115385e-01  4.1539842e-01 -6.9045843e-01 -1.0192701e+00 -5.3532477e-01  1.9134415e+00 -9.3075091e-01 -8.5109204e-01 -4.5059848e-01 -1.0654298e+00  1.3616618e-01  6.8458437e-01 -1.4246389e+00  4.4669596e-01 -1.1835988e+00  3.3900073e-01 -4.6585040e-01 -2.4356345e-01 -4.9157835e-01  2.5911852e-01  1.3722953e+00 -8.8439690e-01 -4.5411118e-01 -9.6393638e-01 -6.6938848e-01  3.1658644e-01 -2.4637473e+00  1.4186958e-01 -5.0957468e-01  7.6662033e-01  9.7702538e-01  6.7535043e-01  2.0408419e+00  1.7291267e-01  2.6716413e-01 -5.7704847e-01 -7.5275696e-01  7.1329481e-01 -1.5092210e-01 -3.6831757e-01  1.3077102e-01  2.2725628e-01  1.1888944e+00  1.7770959e-01 -9.0429751e-01 -8.0481160e-01  8.6959064e-01  7.5381659e-01 -2.0974078e-01 -8.6103294e-02 -2.7832971e-01 -1.3494684e+00  5.7976352e-01 -1.9268793e-02 -2.3215083e-01 -1.8338307e-01  5.6048978e-01 -1.2693242e+00 -5.7451506e-01  3.3924405e-02 -1.1984636e-01 -1.8138821e+00 -3.8127909e-02 -3.7565873e-01  2.0826995e-01  1.0928375e+00 -6.9342081e-01 -1.8538946e+00 -1.4244409e+00  7.3498485e-01  1.2747122e+00  4.4562453e-01  1.5368308e+00 -7.9826417e-01 -4.4371213e-01  8.1297863e-01 -5.1123499e-01 -3.1912964e-01 -4.0416104e-01 -1.4881039e-01  8.1734956e-01 -7.9188215e-01  2.2099921e-01 -1.0573706e-01 -1.7863516e-01  5.9174245e-01  1.4177450e+00  1.0405690e+00 -7.1708614e-01 -8.3861813e-01  8.9110321e-01  4.3025646e-01  2.1996848e-01 -7.1230810e-01 -1.1350414e+00  1.5277805e+00  8.0983368e-01  2.2121504e+00  3.5083201e-01  1.3078363e+00  1.4061086e+00 -1.5825962e+00  2.8261007e-01 -1.3178014e+00  5.4939132e-02  1.5882128e+00  2.2226577e-01  1.2820397e+00 -1.9900176e-01  9.3043477e-01  4.4954146e-01 -1.2891108e+00 -1.8130507e-01 -1.3841293e+00  7.2671431e-01  3.4511018e-01 -1.7547945e-01 -9.7289338e-01 -1.4226360e+00 -5.9454920e-01  3.5975081e-01 -7.7566223e-01  2.9456663e-01  1.7520438e+00 -3.8678394e-01  1.5374178e+00 -8.8545796e-02 -1.9352228e+00 
21  2.1789306e-01  1.8151148e+00 -7.3011406e-01  6.5004410e-01 -5.8528862e-02 -5.2813201e-01  6.3601878e-02  2.1334270e+00  1.2385025e+00  1.4391450e-01  3.0322616e+00  6.9616074e-02  1.0367111e+00  6.1643346e-01 -1.2002688e+00 -5.0477292e-01 -3.6985234e-01  1.6397851e-01 -5.6556532e-02  5.8615769e-01 -1.4581344e+00 -1.6601006e+00  1.8022461e+00  8.7102729e-02 -5.7624740e-01  1.6940522e+00  1.2880630e+00  1.2581277e+00 -4.9944903e-01  1.8874816e+00  4.8131793e-01 -4.2181461e-01  1.5866326e+00 -8.3640236e-03  6.1321904e-01  1.6982355e-01  2.1550399e-01 -2.7867388e-01  6.6760175e-01  1.0829296e-01 -9.2217257e-02 -3.4192804e-01 -7.3265813e-01  9.4480932e-01 -4.5641657e-01 -1.3572124e-01 -4.2417659e-01  1.4964638e+00 -6.3386323e-01 -3.0786525e-01 -8.8749169e-02  7.5953817e-01 -1.6382093e-01  1.1109309e+00  1.1671484e+00 -9.5424635e-01 -1.4735333e+00 -2.1297163e-01 -1.0816496e+00  2.3563850e-01  8.7043809e-02  1.4763064e+00 -1.0794776e+00  2.1688394e-01  4.1980133e-01 -4.9458885e-01 -3.9893444e-01 -1.3422526e+00  8.4319734e-01 -6.6941902e-01 -4.2213233e-02  1.0436177e-01  1.4336756e+00 -8.7758028e-01  1.0837721e+00 -8.3795607e-01 -2.6022902e+00 -5.0154420e-01  2.2294089e+00 -1.2042172e+00  8.4254025e-01  3.9101867e-01  4.4464240e-01 -7.3732498e-02 -3.2662572e-01 -8.3309388e-01 -1.1452809e+00  7.9830595e-01 -2.8133196e-01 -5.2522147e-01 -7.6213092e-01 -5.1985043e-01  2.0064933e-01 -1.1546396e+00 -2.0850248e-01  9.3156917e-02 -7.2654420e-01 -4.7391104e-01  2.6270111e+00  1.6075235e-01  1.8049671e-01  2.0083299e+00  4.0883075e-01  8.2068692e-01 -2.4069465e+00  3.3845863e-01 -1.0114112e+00  1.0378396e+00  8.9983943e-02  8.6547386e-01  1.3073348e+00  5.2159968e-01  1.3378073e+00  5.1894887e-01  2.7930793e-03  1.0473859e+00  2.3874310e-01 -5.9917509e-01 -1.1262685e+00 -1.5906221e+00 -2.3897833e-01 -3.4169941e-01  1.1846658e+00 -2.7579494e-01 -5.6792350e-01 -6.2275883e-01  1.3056156e-01  1.2700818e-01 -3.5405674e-01 -8.5443522e-01  2.0084253e+00  8.7691272e-01 -1.4395602e+00  3.1183676e-01  1.1578033e+00  1.8401782e+00 -3.6811442e-01  1.0441824e+00 -1.4563766e+00  6.6246719e-01  1.1034439e+00 -2.4328895e-01 -1.9223636e-01 -2.1259538e+00 -1.2641173e+00 -1.2713058e+00  5.2451966e-01  2.6471193e-01 -9.3848690e-01  1.5517995e-01 -5.4022896e-01 -2.3711852e-02  9.9773822e-01  1.4914420e+00 -1.0662122e+00  1.9793395e+00 -1.1210891e-01 -5.5072506e-01  6.4789711e-01 -1.4720682e+00 -2.8708286e-01 -9.0859559e-01 -4.9020481e-01 -4.4270039e-01 -2.7210097e-01 -1.9020516e+00  1.7536017e+00 -2.2779352e-01  1.1668172e+00 -1.1518995e+00 -1.9177741e+00  5.9876391e-01 -9.0105501e-01 -9.4652065e-02  2.2728767e+00  1.8315931e+00 -6.8783788e-01  1.5618498e+00  1.1509183e+00 -5.7103810e-01 -5.2819695e-02  1.9227448e+00  5.4188763e-01 -5.5471932e-01  1.4258023e+00  1.0735264e+00 -7.3693537e-01 -1.3537779e-01 -1.5545004e+00  7.8630227e-01  1.1332431e-01  2.2725646e-01 -6.2407711e-02  1.7438714e+00  2.0788246e-01  1.9388494e-01 -3.5291151e-01 -7.0847034e-01  2.2142933e+00  9.8506383e-01  3.2939908e-01  3.3065713e-01  4.7659969e-01  1.5124684e-01 
22  1.8194539e+00  1.0165585e+00  1.0083866e+00  6.3189683e-02 -1.9959236e+00 -1.2598635e+00 -6.3825947e-01 -9.4046894e-01 -9.4380594e-01 -9.7615366e-01 -3.1744564e-01  2.6013918e-01  1.0554865e+00  4.7980516e-02  1.5911245e+00 -4.8079381e-01 -6.5037659e-01  4.5964073e-01 -9.2270424e-01  7.0857097e-01 -1.5177601e+00  4.6676726e-01  5.2253636e-01  1.8813076e-01 -1.7559039e+00 -1.0265162e+00 -4.6835158e-01  9.0420831e-01  1.0651608e+00 -2.9324536e+00  2.1575699e-01  1.8094451e+00  5.3695319e-01  1.1908028e+00 -7.0961312e-01  1.3342193e+00  1.2801991e+00  7.9934821e-01  2.9534162e+00 -4.3476724e-02  9.1882460e-02  6.0964187e-01 -3.8612170e-01  6.7605586e-01  6.9366199e-01 -3.5358183e-01 -9.3900138e-01  1.3406276e+00 -1.0129152e+00  1.5591957e+00 -1.0911593e+00 -1.3813474e-01  5.0810026e-01 -7.0698208e-01  3.9878080e-01 -9.4711562e-01 -3.7745293e-01 -8.3143991e-01  8.0447828e-01 -1.1360218e+00 -2.0538149e-02 -4.2123979e-01 -1.1556264e+00  3.3309693e-01  2.0113319e-01  5.1897222e-02 -8.6297828e-01  6.5373607e-01 -2.9213435e+00 -2.9730048e-01  7.8573493e-01  7.6815937e-01 -4.0385229e+00 -1.2823700e+00  3.7938126e-01 -1.8750690e+00  4.6162171e-01  8.5650214e-01  9.5289807e-01  1.3392727e-01  1.0106852e+00 -9.5375643e-01 -2.0494405e+00  3.1974484e-01  1.6683604e+00 -1.2589118e+00  1.7041329e+00 -2.7140492e-01 -1.0992718e+00  2.2242114e+00  7.6959849e-01 -8.2930522e-01  2.0676062e+00 -1.3890628e-01  1.3386860e+00  8.5454292e-03  1.2959545e+00  2.2919276e-01 -2.7208388e-02  5.9681356e-01  1.9303323e+00 -1.4261981e+00 -2.1364267e-01  3.5922137e-01 -2.9197966e-01 -1.0300612e+00  2.5261392e-01  1.1303008e+00  1.1964881e+00 -4.4817948e-01 -1.3002110e+00 -1.9914645e+00  1.1362035e+00 -1.5194941e+00 -2.1480872e+00 -7.7908347e-01  1.3639112e+00 -1.5774066e+00 -1.6556976e+00 -1.7915433e-01 -3.3911345e-01  1.0823920e+00  2.9814606e-01  1.9040768e+00  2.1269781e+00 -5.8175945e-01 -5.5424231e-01  3.8133061e-01  9.0754898e-01 -5.8751617e-01 -8.8275317e-01 -3.1132063e-01 -1.6357178e-02  3.5117019e-01 -4.2462105e-01  4.0100127e-01 -2.8353553e+00  2.2389874e-01  8.1554168e-01 -7.6088266e-01 -6.6191471e-01  6.9191023e-01  1.1617564e-01 -8.8643561e-01  1.6880045e+00  1.4392431e+00 -8.8104066e-01  1.7307503e+00 -1.5455353e+00 -2.1948632e-01  4.6230443e-01  1.6984537e+00 -1.5395588e+00  4.5602521e-01 -5.6799582e-01  1.2543507e-01 -1.3452696e+00  2.6020486e-01 -4.0213380e-01 -9.8175766e-01 -3.3538444e-01  1.9117379e+00  2.9297512e-01  3.6579040e-01  6.9597610e-01  1.7121337e+00  1.5524579e+00 -2.1356866e+00 -3.7673863e-01 -3.8277864e-01 -1.1720831e-01 -8.2740961e-01 -6.5976410e-01  9.9870305e-01 -6.4376097e-01  1.0143693e+00 -4.6233089e-01 -1.6278691e-01 -5.7358008e-01  3.9301615e-01 -5.0413801e-01 -4.6634032e-01  6.2787234e-01  2.3026885e-01  1.1859107e+00  1.5693614e+00 -1.3574241e+00 -3.3601220e-01 -4.5780398e-01 -1.7528455e+00 -4.3290109e-01  6.1915365e-01  3.7339086e-01  8.9158597e-01 -4.5950604e-01 -1.0519544e+00  1.0225580e+00 -1.5162183e+00 -2.1024614e+00 -1.4593445e+00  9.4060670e-01 -3.0168219e-01  5.8688114e-01 -1.1655828e+00 
[...]
25 -2.2124056e-02 -7.9543846e-01 -2.0469486e+00  1.0763924e+00 -2.8855288e-01 -1.7939819e-01 -2.6644703e+00 -6.8744169e-01 -9.3451675e-01  9.6280496e-01  1.2192451e+00 -1.6325631e-01  3.3301262e+00 -2.5305984e-01  5.1166836e-01 -2.1092617e-02 -1.2442468e+00 -2.2116760e-01 -7.2204727e-02 -2.2227023e-01  1.5967078e+00 -4.3094001e-01  3.3345093e-01  1.0391306e+00  2.3578369e+00  1.9718301e+00 -2.7613210e-01  2.7643609e-01  6.8248221e-01 -3.6093980e-01 -3.5062905e-01  1.4192332e+00  1.1159686e+00  2.4470284e-01 -2.8222214e+00  9.7078200e-01 -5.4865484e-01 -2.1152581e+00  9.9035001e-01  1.4277507e+00 -8.3690912e-01  6.9119559e-03 -1.9112327e+00  1.4686739e-01 -2.4235739e-01 -5.7232158e-01 -2.1814203e-01 -2.3063412e+00  8.9785372e-01  2.0215772e-01  2.0673327e+00 -3.0797743e-01 -1.3767970e+00  1.9089428e+00 -9.7443062e-01  1.1226585e+00  2.1010984e+00  1.3816768e+00  3.5236373e-01  4.3048663e-01 -5.5993246e-01  8.9429940e-01  1.2944036e+00 -2.1611094e-01 -8.1414510e-01 -1.1808560e+00 -1.6426104e-02 -1.8949487e-01 -6.0753902e-01 -3.4316584e-01 -1.2034646e-01 -6.5308656e-01 -9.5081239e-01  1.0385779e+00 -9.1918635e-01 -1.1770173e+00  1.3704442e+00  1.5541914e-01 -9.7751024e-01  6.3033678e-01  3.9335641e-01  1.3914116e+00  2.3879940e-01 -7.0366164e-01 -1.2041469e+00 -5.5036040e-01 -1.0283609e+00  4.6522807e-01  5.1194464e-02 -8.6252004e-01 -6.5937767e-01  5.4315274e-01  2.2189273e+00  2.4797872e+00  4.3463327e-01 -5.1367407e-01  8.8841975e-01  1.2706890e+00  7.7843923e-03  6.0783927e-01  4.4636356e-01  5.4241142e-01 -3.0012392e-01 -4.5029762e-01 -6.5581474e-01  7.5612199e-01 -7.5623214e-01 -1.2457993e+00 -1.2750701e+00 -1.6216428e+00 -2.4788014e-01  5.9942861e-01 -1.2803913e+00 -3.1383686e-01 -1.7816882e+00  1.6519971e-01  5.0299348e-01  3.7455854e-01  1.8018609e+00  8.8278580e-01  5.6720196e-01 -1.6530877e+00 -9.2477611e-01  2.0746185e+00  7.9703797e-01  9.3312729e-01 -1.0893928e+00 -6.8294731e-01 -2.0972934e+00  1.1976203e+00 -1.1970654e+00 -6.6983721e-01 -3.3794628e-01 -3.2653865e-01 -1.2614776e+00 -8.1692992e-01 -3.9725486e-01  2.9627014e-02  2.2865727e+00 -1.3744963e+00  1.8920198e-01 -1.1104020e+00 -2.9377054e+00 -8.8746323e-02 -1.6396217e+00 -5.1771075e-01 -2.2904750e+00  7.3199991e-01  7.4324271e-02  3.7484780e-01  2.5083166e-01 -4.4831127e-01  1.1276455e+00  5.8784625e-01  1.4174846e+00  4.0504950e-01 -2.7306365e-01  1.2809831e+00  3.6957885e-01 -1.4412728e+00 -5.0024353e-01  1.2137751e+00 -9.8805206e-01  1.7380148e+00 -1.4227561e-01 -7.6421158e-01 -5.2232651e-02 -2.1215387e+00  1.8009341e+00  1.2776503e+00  6.4769960e-01  1.7816489e-01  5.7553695e-01 -6.5254356e-02  1.6850122e+00 -9.4923121e-01 -1.2346278e-01  7.5819997e-02  6.6114345e-01 -6.4284959e-01  4.2921828e-02  1.9550657e+00  6.6252486e-01  2.6990201e-01 -2.4110315e-01 -1.5991872e+00 -1.2221986e+00 -1.5190235e+00  1.7244692e-01  1.3814265e+00  4.6847005e-01 -1.6659031e+00  7.1797077e-01 -5.9555019e-01  1.3925356e+00 -1.2506658e+00  1.3590555e+00  8.5772507e-01 -5.2038465e-02  5.7284573e-01 -6.6136875e-01 -3.4229965e-02 -1.2125484e+00 -1.8683107e-01 
26  2.6406309e-01 -2.7485197e-01  1.1320684e-01  2.5143281e-01  4.0240220e-01  6.4772180e-01  1.7242696e-01 -9.0067849e-01 -6.6356744e-01  2.6669312e-01  1.2750465e+00 -4.6779814e-01 -5.4272701e-01 -5.5939879e-01 -1.2984340e+00  3.7964845e-01 -4.3562220e-01 -2.0655579e-01 -2.1478326e-01 -8.9773654e-01 -6.4795698e-01  1.3701254e-01  5.6727976e-01  5.9851825e-01 -3.7993520e-01 -1.2746670e+00 -1.1515869e+00 -5.2247170e-01  2.7792280e-01 -7.9720582e-01  5.1742970e-01  1.4442212e+00  4.2873629e-01  5.6609150e-01  1.1398750e+00 -6.6115436e-01 -6.9860195e-01 -3.9261677e-01 -9.4860492e-01 -1.0146830e+00 -9.7653600e-01 -4.5674588e-01 -6.0379383e-01  7.7534617e-01  1.5905703e+00  1.0016417e+00  7.5780692e-01  1.0295871e+00  1.1500838e+00  7.7048786e-01 -1.3750102e+00 -1.1333074e+00 -5.3321413e-02 -1.0047001e+00  1.5928289e+00  7.4841137e-01  1.7510097e+00  9.8911102e-01 -7.3444177e-01 -1.0659576e+00 -9.5269967e-01  7.7035515e-02 -6.5067275e-01 -5.7624073e-01 -6.6638692e-01 -1.0288931e+00 -8.7760164e-01 -1.4946000e+00  3.6616741e-01 -5.2243522e-01  1.2668086e+00  2.1114708e-01 -1.7686221e+00  2.4618169e-01  1.4556595e+00 -2.5558951e+00 -2.0263978e+00 -1.9825525e+00 -5.0115940e-01 -6.9295465e-01  5.6772279e-01 -4.9729460e-03  1.5919048e-01 -9.5712617e-01 -1.7801038e-01  1.3277633e+00  2.7128822e-01 -1.7321250e+00 -9.0829552e-01 -1.2046249e-01 -9.9740009e-01 -2.9240171e-01 -2.0801278e+00  1.7119320e+00 -1.6215833e+00  6.0084999e-02  1.2090872e+00 -5.0127447e-01 -9.0535303e-01  5.1513759e-01  2.6913842e-01 -3.7711358e-01  2.0314197e+00 -6.7407588e-01 -1.8962700e-01  1.5706617e+00 -1.2812762e+00  1.4695844e+00 -3.1307241e-01  5.3452699e-01 -1.2765152e+00 -1.9109725e-01 -1.0045584e+00  2.3047035e+00 -1.8348379e+00 -1.0492738e+00  6.5387927e-01  6.2051562e-01 -1.1027965e+00 -1.2655187e+00  3.8221415e-01  1.4995893e+00 -2.5851612e-01 -3.1961609e-01  8.5182114e-02 -9.7588489e-01 -1.0418472e-01  7.0540223e-01  3.1881313e-01  2.2334012e-01  1.3955581e+00  6.6779860e-01 -1.3513160e+00 -2.4429455e-01 -5.3825384e-01  1.6634205e+00  1.7932003e+00 -1.3603283e+00 -2.3993105e-01 -3.6219649e-01  1.0582304e+00 -1.0966089e+00 -2.3355378e+00 -9.0638836e-01  8.9452063e-01 -8.3718477e-01 -5.1513174e-01 -1.3025633e+00  5.8515560e-01 -4.1668939e-01  1.1728367e+00  3.5998149e-01  9.2711646e-01  1.3328162e+00 -1.5213276e-01 -5.1827308e-01  2.7356029e+00  1.1026826e+00  4.0462220e-01  2.0878389e+00  1.6770642e-01 -3.0503488e-01  9.4899237e-01 -4.2335567e-01  9.4255210e-01  5.5347562e-01  9.7640936e-01 -1.0353357e+00 -3.9641531e-01 -4.2143446e-01 -1.0239705e+00 -3.7924437e-01 -3.2738656e-01 -7.1922061e-01 -3.4932499e-01  6.6853846e-01  4.7924933e-02 -2.9009396e-02  1.6176617e+00  2.8157814e-01  3.9366576e-01  4.7557629e-01 -6.6201360e-01  4.6065843e-01 -3.7613095e-01 -1.9463953e-01 -2.0543547e+00 -5.6231154e-01 -1.0176457e+00  9.4738014e-01  8.3739585e-01  4.7953465e-01 -9.4702922e-01 -2.1766023e+00  5.3485775e-01  7.7325727e-02 -9.3699058e-02  1.0733926e+00  4.7375324e-01  4.6933117e-01 -7.5586906e-01  4.4708499e-01  4.8950949e-01  1.0887727e+00 
27 -5.2959806e-01  5.9235703e-01 -1.9322979e+00  1.2551970e+00  3.1079713e-01 -4.7456433e-01 -1.5371244e+00 -1.8038301e+00  2.9278208e-01 -8.5657544e-01 -9.7313241e-01 -4.8289158e-01  7.6332035e-01 -2.0113300e+00 -1.6907531e-01 -5.0004150e-01 -1.4020130e+00  1.1784776e-01  4.5791612e-01  5.3637955e-01  4.7989512e-01 -1.0907609e+00 -4.7325591e-01 -3.7491152e-01  5.2792425e-01  2.4251767e-02  1.6559321e+00  5.4914807e-01 -2.0010326e+00 -6.6683856e-01 -6.4385485e-01  2.0452578e-01  8.1160343e-01  5.3309079e-01 -3.9144473e-01  1.2495342e+00 -6.2110966e-01 -1.8710272e-02 -1.4918958e+00  5.7856913e-01  7.2394530e-02  9.8999200e-01  2.0778182e+00  6.1797761e-01  9.4336297e-01  1.1141086e+00 -6.9367791e-01 -2.0258001e-02 -5.3578480e-01 -1.0517326e+00  1.6237616e-01  8.6865932e-01  1.7417755e-01 -6.9388065e-01  1.3846070e+00 -1.1605070e+00  3.5004907e-01 -1.4704676e+00  6.9142756e-01 -6.9763012e-01 -8.1751527e-01 -1.3030666e+00  1.7981476e-01 -1.4247337e+00 -3.8550638e-01 -3.9566836e-01 -1.0122924e-01 -2.5779882e-01  1.1624132e+00  5.7992346e-01  2.4078158e-01  4.5972711e-01  1.4750499e+00 -8.2005978e-01  1.3434647e+00 -4.6572659e-01 -7.5629031e-01  5.8332550e-01 -3.5599398e-01 -2.8899607e-01  6.2905995e-01 -5.6005391e-01  1.4563773e-02  4.6522284e-01  1.8812455e-02 -6.5309378e-01 -1.8920456e-01 -1.5413142e+00  1.9939749e+00  1.5102858e-01  1.1614094e+00  3.5244593e-01 -7.3826409e-01  1.1157694e+00  7.2149093e-01 -2.3549039e-01 -1.8822827e-02 -5.7576322e-02 -1.8766265e+00 -4.9696082e-02  5.2493108e-01 -1.2632102e-01 -1.0944152e+00 -9.8607173e-01 -1.6812118e-02 -2.8647893e+00 -5.3353919e-01  1.6321777e+00 -6.9312845e-02  7.6663213e-01 -1.7765151e+00  3.0422944e+00  7.3597437e-01  1.4221280e+00  1.6921163e+00 -1.3288878e+00 -1.2046682e+00 -1.0062049e+00  1.0966672e+00 -7.7695397e-01  9.5378126e-02 -1.5337381e+00 -8.7024929e-02  3.8015296e-01  1.7215129e+00  7.9948759e-01 -6.9393436e-01  1.0256914e-01 -1.3657521e+00  2.5637191e+00 -9.1399208e-01 -9.9456625e-01  1.2428538e+00 -1.4155386e+00  7.0374626e-01  5.9488902e-01  2.8918582e+00 -3.7289312e-01  1.6696388e+00 -6.7596078e-02  7.5867414e-01 -1.0344236e-01 -2.1045172e+00 -7.0547721e-02 -1.1596034e+00  1.2428962e+00 -5.0477691e-01 -9.9724857e-01 -9.6949593e-01  8.0590807e-01 -1.3616479e+00  1.1031665e+00 -2.5269423e+00 -5.3839265e-01  5.0308015e-01  5.7177740e-01 -1.9920043e+00  1.0077149e+00 -3.9682362e-01 -1.6829846e+00 -7.5532282e-02 -9.1657105e-01  1.3735503e+00  1.2223921e+00 -6.7388051e-01  4.5278534e-01  8.2510123e-01  3.9232071e-02 -1.7853721e+00  1.1101274e-01 -5.7550832e-01  6.9268317e-01  1.0654675e+00 -3.8237526e-01  3.6586656e-01 -2.1208314e-01 -1.0250035e+00 -2.7381456e-02 -6.3761251e-02  5.2180461e-01  7.0214759e-01 -1.2491733e+00  1.7551781e-01  4.2486827e-01  1.9471578e-01  1.4597102e+00  1.5593480e+00 -5.0760788e-01 -8.6405934e-01  1.8051763e-01  7.4434913e-03  2.6464733e-01 -1.0248005e+00 -1.5496192e+00 -1.7642098e+00  2.0971838e-01 -5.3101451e-01  1.9288691e-01 -1.4720872e+00  4.7894642e-01 -2.4739588e-01  1.0776087e+00  1.9047476e-01  1.2164815e-01 
28 -1.7957093e+00  4.9803572e-01 -2.8792678e-01 -1.7908461e+00  1.5399348e-01 -8.3492449e-01 -5.5698135e-01  1.0917964e+00 -1.8085498e-01 -7.8288664e-01  2.8811043e-01 -1.8200475e+00  6.0704079e-01 -1.7349650e-01  5.1766657e-01 -7.9474712e-01 -1.8007841e-01  1.0007856e+00 -9.7515509e-01 -1.5337633e+00 -4.9841438e-02 -1.0504914e+00 -1.0545563e+00  1.3762509e+00 -1.2250200e+00 -5.7003855e-01  9.5518487e-01  9.7973777e-01  5.2857381e-01 -2.2630325e-01 -9.3231661e-02  6.6154146e-01  2.6618740e-01  9.3827315e-01  1.2108837e+00 -4.7627300e-01 -6.0215967e-01 -1.7557607e+00 -1.1011897e+00 -5.0578706e-01  1.3242400e+00  7.3757443e-01  1.6126246e+00 -7.0038091e-01  1.9432560e+00 -3.9707691e-01  2.1581429e+00  1.3963556e+00  1.7769985e+00 -1.0108851e+00 -3.3853416e-01  1.0144330e+00 -5.2922851e-01  1.6341439e+00  1.3422478e+00  5.8223035e-01  9.4243623e-01 -7.6426882e-01 -9.5202830e-01  4.8100124e-01 -2.8782943e-01  1.0783692e+00 -9.5316567e-01  3.3121681e-01 -1.2543973e+00 -5.9574631e-01 -9.0434476e-01  3.7087667e-01  8.4898661e-01  1.2417291e+00  1.0734448e+00 -4.8983157e-01  8.4735135e-01 -6.1926185e-01 -4.1541281e-01  1.3098950e+00 -1.1851521e+00  2.4875849e+00  6.6125062e-01 -9.9976925e-01 -3.7320640e-01 -1.0539207e+00 -7.1029158e-02  4.4803667e-01 -6.3445441e-01  1.0071677e+00  4.2504787e-02 -1.0824384e-01 -7.8894126e-02 -1.5514378e+00 -2.7435954e-01 -1.2768878e+00 -3.0763257e+00 -1.0357053e+00  8.9623046e-01  1.0344514e+00  8.0110339e-01 -1.2599856e+00 -3.3469501e-02 -2.6450367e-01 -1.5010637e+00  1.6486486e-01  2.1875988e-01 -3.0972330e-01 -1.2571054e+00 -1.2910348e+00 -1.0392535e-01  4.9817130e-01 -1.2646437e+00  7.6605522e-01 -6.1017160e-01 -1.8291870e+00 -1.4170408e+00 -1.7874332e+00 -8.1778561e-01  4.4574784e-01 -1.4988486e+00  1.6731728e+00  5.3670437e-01  1.0255764e+00 -5.7281715e-01 -2.1816982e-01 -4.5086761e-01  1.5404991e+00 -1.4574777e+00 -1.4010487e-01  3.1322998e-01 -2.2317728e+00 -1.1000762e+00 -1.0745618e-01 -1.4235462e-01 -1.2150386e+00 -6.5551804e-01 -8.1030443e-01  7.2478891e-01  1.5878247e+00 -1.3559260e+00 -1.0810577e+00  9.7785781e-01 -1.1162679e+00 -7.9762507e-01 -4.0766075e-01 -4.3084181e-01 -1.3991521e+00  1.0043926e+00 -2.9146467e+00  8.0704881e-01 -1.5402485e+00 -2.9122652e-02  1.0453384e+00  3.3289397e-02  1.1675574e+00 -6.1250562e-02  1.0913682e+00 -5.0335607e-01 -1.2636724e+00  5.6196264e-01  2.5309926e-01  1.7149210e-01  1.1859760e+00  1.5376849e+00 -7.0230143e-01 -1.0562038e-01 -1.7839212e+00  1.5715019e+00 -1.9634180e+00 -5.1021688e-01 -2.1738343e+00  6.2994650e-01  1.7570802e+00 -2.0867059e-01  2.6216508e-01  2.2332418e+00  2.0003926e+00 -3.5634008e-01  1.1507067e+00 -7.2162577e-02 -1.6525844e-01  3.2870918e-02  6.9537161e-01  7.7328490e-01 -2.1728970e+00 -9.2038550e-02  7.1717662e-02  8.1254395e-01 -3.5951615e-01 -1.3567765e+00 -5.1844110e-02  2.5615625e-01  3.7721576e-01  1.4676627e-01 -5.2281845e-01 -1.3784942e+00 -1.8487825e+00 -5.4517759e-01  1.2524799e+00 -5.7305186e-01 -7.5342745e-01 -3.3762712e-01  2.6297482e-01  2.8284577e-02  6.2346026e-01  9.1938137e-01  3.2621669e-01 
29  1.0400212e+00  8.9420468e-01  1.9098867e-01  9.9637652e-01  7.9177495e-01 -5.0704021e-01  8.7160027e-01 -4.4475147e-01  1.3710452e-01 -1.5147019e+00 -4.0462515e-03  4.5647211e-01 -1.4785691e+00 -7.8015855e-01  2.9300303e-01 -1.5091100e-01  4.0147683e-01  1.0153080e+00  1.4111428e+00 -1.3281612e+00  8.6034409e-01 -1.2664374e-01  7.2835849e-01  1.4533869e+00  7.7992030e-01 -3.4160071e-01  1.8273661e+00 -2.5926726e+00  1.1199501e+00 -1.1505966e+00 -1.8979103e+00  8.7181181e-01 -1.5240209e+00 -1.8789533e-01  4.3630456e-01 -1.3808942e+00  1.4851170e-01  1.2311758e+00 -1.4458252e-01  1.2958952e+00  1.4896991e+00  4.4403047e+00  4.5103398e-01  7.7614951e-01 -6.0904925e-02  2.4736330e+00 -7.3540300e-01  8.5039544e-01 -4.3655354e-01 -1.8818292e+00  1.5484179e-01 -4.9384866e-01  7.2080718e-01 -4.2143007e-01 -2.4137738e+00 -4.5089468e-01  4.6540518e-01 -5.5985037e-01 -1.0848563e+00 -1.5372519e+00  1.3506447e-01  8.9199210e-02  1.1511397e+00  8.4395438e-01 -6.8342474e-01  3.1033307e-01 -8.6341423e-01 -9.0726937e-01 -7.0170936e-01 -6.1137820e-01 -1.2816001e+00  5.0250619e-01 -3.6016387e-01  5.0886202e-01 -9.1605629e-01 -1.5603089e+00  7.8873834e-01  5.5843444e-01 -1.3409589e-01 -8.1923308e-01 -1.3651596e+00 -1.3809927e+00  8.3980793e-01 -4.2990182e-01  2.9308098e+00 -7.5840999e-01 -4.1289734e-01 -4.5362928e-01  5.1828247e-01 -1.8129855e+00 -1.1588216e+00  5.4495442e-01 -3.6560526e-01 -8.4392467e-01 -4.7293108e-01  1.1455237e+00 -3.9608459e-01 -4.2348432e-01  7.5503206e-04  2.2552795e+00  7.6257820e-01 -1.0142843e+00 -6.8058943e-01  2.4214459e+00 -1.1826120e+00 -1.2457494e+00  1.3842332e+00  2.1349682e+00  4.6477574e-01  2.8262333e+00 -1.2260000e+00 -1.9913408e+00 -7.9350912e-01 -3.9969143e-02  9.6963202e-03 -1.9859042e-01 -4.0028567e-01  4.4974118e-01  1.6022645e-02 -4.3090454e-01 -5.2888535e-02 -7.0738652e-01  1.2373521e-01 -9.5877720e-01  2.7999244e-01  7.4042407e-01 -1.2621220e+00  6.0402439e-01  6.0044719e-02  2.7950230e-01  3.4670599e-01  3.3466506e-01 -1.0474629e-01  4.7403337e-01  8.4958626e-01  2.1122435e-01 -9.4035099e-01  6.4129599e-01 -6.2797617e-02 -1.3723283e+00  4.3282416e-01  8.6367299e-01 -3.1244328e-01 -1.9124405e+00  9.6334670e-01 -2.0834374e+00  7.7985990e-01 -2.1475450e-02  2.9294427e-01 -7.4945118e-01  1.5684043e-01  3.3252848e-01  4.1838271e-01  2.0890185e-01 -4.7558037e-01 -2.8937904e-01 -4.2336870e-01 -1.0275991e+00 -1.5882318e+00 -3.7494776e-01 -1.2353314e+00  9.8050556e-01 -5.5737886e-01 -1.8514489e+00 -2.8481697e-01  1.9935802e+00  6.1795284e-01  3.2297787e-01  3.4536279e-01 -1.7669124e+00  2.0450166e+00 -1.0818680e+00  1.0678238e+00  1.7626987e-01  9.8458410e-02 -8.8415382e-01 -7.5652687e-02  1.1229806e+00 -1.2934661e+00  2.0348607e+00 -2.5548872e-01  8.6816504e-01 -2.9157302e-01 -6.5653305e-01 -8.2090664e-01 -1.4510945e+00 -1.5608488e-01 -5.9969557e-01  2.5595296e-01 -1.3110429e-01  1.0825260e+00  1.1646783e+00 -4.4296174e-01  5.2794777e-02 -1.0858825e-01 -3.6225462e-01  6.6822009e-01 -2.8354629e-01 -3.2541471e-01 -7.1009819e-01  6.3649124e-01  5.3297037e-02  1.2978049e+00  1.7478924e+00 
30 -1.9066519e-01  5.4303398e-01 -3.1609306e-01 -1.5948793e+00 -5.2933029e-01 -2.4755428e-01 -4.7833152e-01  7.7026346e-01 -3.0970025e+00  1.2370118e-01 -2.8481464e-01  1.0720940e+00 -1.0198247e+00 -2.2753228e+00  6.5781127e-01  3.1873540e-01 -7.4786196e-01 -1.7412164e+00  8.9296785e-01 -2.5431306e-01 -7.8135639e-01  1.7859100e+00 -1.0249547e+00  2.1794691e+00  5.0797443e-01 -1.6076618e-01  9.9018114e-01 -1.3689396e+00  1.0644862e+00  1.6936946e-01  1.4756807e-01 -1.1356661e+00 -6.2636737e-01  1.2710240e-01 -4.1858561e-01 -3.5997819e-01  5.1720232e-01 -1.1751393e+00  8.6460746e-01 -2.6364579e-01  3.9170524e-01 -1.0318935e+00  3.4092175e-01 -2.8063000e-01  4.9203489e-01  3.0837388e-01 -2.4432941e+00  1.0596499e-01  4.0631924e-01  1.4697891e+00  4.2674631e-01 -1.9690096e+00  4.1765093e-01 -3.1901898e-01 -1.3468464e+00  3.6393247e-01 -4.5875366e-01  3.2591481e-01  1.3010309e-01 -1.7058632e-01  5.5546759e-01  1.4337489e+00  3.2302549e-01 -1.0687251e+00  1.4810064e+00  1.3241096e+00 -6.6189566e-02  1.1154399e-01 -1.1347229e-01 -3.6128109e-01 -3.8610647e-01  1.0260312e-01  6.8548752e-01  2.0409753e+00 -8.9561369e-01  4.1010899e-01  1.4802063e+00 -7.4449964e-02  2.7434907e-01 -1.4301261e-01 -2.8152006e-01  1.8717578e-01 -6.1166395e-01 -3.3927468e-01 -7.2248124e-01 -1.3677677e+00  1.3042114e+00  1.4798314e-01  7.8428284e-01 -1.6454987e-01  5.4658821e-02 -7.2373126e-01  7.9848932e-02 -1.2729986e+00  4.5190918e-01  1.5655823e-01  1.6652084e-01  1.0042337e-01  4.0376059e-01 -1.3028136e+00  7.7854763e-02 -1.4869669e-01 -7.3907743e-01  1.4806411e-01  7.0971604e-02 -6.1427799e-01 -1.0662751e+00  1.1975324e+00  1.8222400e-01  1.3754916e+00  1.5002851e-01  7.6340860e-01 -2.2399652e+00  3.5895203e-01 -1.7412458e-01  1.6463418e+00 -1.7973253e+00  2.4881860e-01 -1.1924904e+00  1.1039996e-01 -7.4576842e-01  9.8103117e-01  4.0898229e-01  1.8130242e+00  2.3142681e-01  1.7117614e+00 -6.0514359e-01  1.1186987e+00 -7.7579555e-01 -1.7737963e+00 -5.8417100e-01  3.7881377e-01  1.6255258e+00 -1.2231906e+00  1.7167536e-02 -9.4010062e-01 -1.2661053e+00  1.2702744e+00 -1.3487964e-01  1.9278027e-03 -1.5691050e+00  1.5173930e+00 -6.0524382e-01  6.4927221e-01  6.6460341e-02 -1.1226012e+00  1.2531376e+00 -1.7497528e+00 -2.0304300e-01 -2.6173115e-01  3.1972841e-01 -1.6148140e+00  1.4455639e+00  1.9107761e+00  2.5388181e+00 -2.7418086e+00 -1.1892663e+00  1.2738571e+00  1.4317674e+00  1.1984644e+00 -4.6767937e-02  3.3176397e-01 -7.8982195e-01  1.7931919e+00  2.0348946e+00 -7.7756398e-01 -1.2856269e+00 -9.2924311e-01  3.5737661e-01 -4.5420325e-01 -1.0505375e+00  3.0146373e-01  3.7978429e-01  1.0099471e+00 -1.2509275e+00 -2.6353582e-01 -7.9592405e-01  1.3257945e-01 -1.1034144e+00  2.3324610e-01 -1.2880916e+00  6.2485781e-02 -8.8300423e-01 -1.6288967e-01 -3.7127310e-02  1.3201749e-01 -4.1644314e-01  9.3604855e-02 -6.9744298e-01 -6.3176791e-01  3.8187886e-01  5.8033535e-01 -1.4249822e+00  3.4635057e-01 -8.0079949e-02 -1.7222021e+00 -1.3107393e-01  6.1270989e-01  1.4625674e+00  8.6279684e-01  8.0183386e-01 -1.7782439e-01 -4.5441295e-02  3.5806918e-01 
