$DATA1 SOURCE='HSPICE' VERSION='L-2016.06-SP2-2 linux64'
$OPTION MEASFORM=1
$ This file format is subject to change 
$ The seperator is :@:                  
$index=1 is a nominal sample in Monte Carlo.
$option ignore_global_variation = no              
$option ignore_local_variation = no               
$option ignore_interconnect_variation = no        
$option ignore_spatial_variation = no   
$option ignore_variation = no 
$option sampling_method  = srs                  
$option normal_limit     =     2.000e+01      
$option replicates       =   1      
$option random_generator = MCG                          
$option seed             =       1  
$option stream           =   1      
$option output_sigma_value =  1     
$option use_agauss_format = yes     
$option screening_method = pearson  
$Global Variable number:        4                               
$Local Variable number:     5344                                
.TITLE '**puf spice file**'
index pmos_vtl:@:vth_pmos:@:IGNC pmos_vtl:@:toxm_pmos:@:IGNC nmos_vtl:@:toxm_nmos:@:IGNC nmos_vtl:@:vth_nmos:@:IGNC xachain_0.xdff_0.m_mn2:@:nmos_vtl:@:lmin:@:ILNC xachain_0.xdff_0.m_mn6:@:nmos_vtl:@:lmin:@:ILNC xachain_0.xdff_0.m_mn7:@:nmos_vtl:@:lmin:@:ILNC xachain_0.xdff_0.m_mn4:@:nmos_vtl:@:lmin:@:ILNC xachain_0.xdff_0.m_mn3:@:nmos_vtl:@:lmin:@:ILNC xachain_0.xdff_0.m_mn5:@:nmos_vtl:@:lmin:@:ILNC xachain_0.xdff_0.m_mn1:@:nmos_vtl:@:lmin:@:ILNC xachain_0.xdff_0.m_mn8:@:nmos_vtl:@:lmin:@:ILNC xachain_0.xdff_0.m_mn9:@:nmos_vtl:@:lmin:@:ILNC xachain_0.xdff_0.m_mn12:@:nmos_vtl:@:lmin:@:ILNC xachain_0.xdff_0.m_mn11:@:nmos_vtl:@:lmin:@:ILNC xachain_0.xdff_0.m_mn10:@:nmos_vtl:@:lmin:@:ILNC xachain_0.xdff_0.m_mn14:@:nmos_vtl:@:lmin:@:ILNC xachain_0.xdff_0.m_mn13:@:nmos_vtl:@:lmin:@:ILNC xachain_0.xdff_0.m_mp2:@:pmos_vtl:@:lmin:@:ILNC xachain_0.xdff_0.m_mp6:@:pmos_vtl:@:lmin:@:ILNC xachain_0.xdff_0.m_mp7:@:pmos_vtl:@:lmin:@:ILNC xachain_0.xdff_0.m_mp4:@:pmos_vtl:@:lmin:@:ILNC xachain_0.xdff_0.m_mp3:@:pmos_vtl:@:lmin:@:ILNC xachain_0.xdff_0.m_mp5:@:pmos_vtl:@:lmin:@:ILNC xachain_0.xdff_0.m_mp1:@:pmos_vtl:@:lmin:@:ILNC xachain_0.xdff_0.m_mp8:@:pmos_vtl:@:lmin:@:ILNC xachain_0.xdff_0.m_mp9:@:pmos_vtl:@:lmin:@:ILNC xachain_0.xdff_0.m_mp12:@:pmos_vtl:@:lmin:@:ILNC xachain_0.xdff_0.m_mp11:@:pmos_vtl:@:lmin:@:ILNC xachain_0.xdff_0.m_mp10:@:pmos_vtl:@:lmin:@:ILNC xachain_0.xdff_0.m_mp14:@:pmos_vtl:@:lmin:@:ILNC xachain_0.xdff_0.m_mp13:@:pmos_vtl:@:lmin:@:ILNC xachain_0.xmux2to1_t0.xinv_0.m_i_0:@:nmos_vtl:@:lmin:@:ILNC xachain_0.xmux2to1_t0.xinv_0.m_i_10:@:pmos_vtl:@:lmin:@:ILNC xachain_0.xmux2to1_t0.xand_0.m_i_2:@:nmos_vtl:@:lmin:@:ILNC xachain_0.xmux2to1_t0.xand_0.m_i_3:@:nmos_vtl:@:lmin:@:ILNC xachain_0.xmux2to1_t0.xand_0.m_i_0:@:nmos_vtl:@:lmin:@:ILNC xachain_0.xmux2to1_t0.xand_0.m_i_10:@:pmos_vtl:@:lmin:@:ILNC xachain_0.xmux2to1_t0.xand_0.m_i_11:@:pmos_vtl:@:lmin:@:ILNC xachain_0.xmux2to1_t0.xand_0.m_i_1:@:pmos_vtl:@:lmin:@:ILNC xachain_0.xmux2to1_t0.xor_1.m_i_2:@:nmos_vtl:@:lmin:@:ILNC xachain_0.xmux2to1_t0.xor_1.m_i_3:@:nmos_vtl:@:lmin:@:ILNC xachain_0.xmux2to1_t0.xor_1.m_i_0:@:nmos_vtl:@:lmin:@:ILNC xachain_0.xmux2to1_t0.xor_1.m_i_10:@:pmos_vtl:@:lmin:@:ILNC xachain_0.xmux2to1_t0.xor_1.m_i_11:@:pmos_vtl:@:lmin:@:ILNC xachain_0.xmux2to1_t0.xor_1.m_i_1:@:pmos_vtl:@:lmin:@:ILNC xachain_1.xdff_0.m_mn2:@:nmos_vtl:@:lmin:@:ILNC xachain_1.xdff_0.m_mn6:@:nmos_vtl:@:lmin:@:ILNC xachain_1.xdff_0.m_mn7:@:nmos_vtl:@:lmin:@:ILNC xachain_1.xdff_0.m_mn4:@:nmos_vtl:@:lmin:@:ILNC xachain_1.xdff_0.m_mn3:@:nmos_vtl:@:lmin:@:ILNC xachain_1.xdff_0.m_mn5:@:nmos_vtl:@:lmin:@:ILNC xachain_1.xdff_0.m_mn1:@:nmos_vtl:@:lmin:@:ILNC xachain_1.xdff_0.m_mn8:@:nmos_vtl:@:lmin:@:ILNC xachain_1.xdff_0.m_mn9:@:nmos_vtl:@:lmin:@:ILNC xachain_1.xdff_0.m_mn12:@:nmos_vtl:@:lmin:@:ILNC xachain_1.xdff_0.m_mn11:@:nmos_vtl:@:lmin:@:ILNC xachain_1.xdff_0.m_mn10:@:nmos_vtl:@:lmin:@:ILNC xachain_1.xdff_0.m_mn14:@:nmos_vtl:@:lmin:@:ILNC xachain_1.xdff_0.m_mn13:@:nmos_vtl:@:lmin:@:ILNC xachain_1.xdff_0.m_mp2:@:pmos_vtl:@:lmin:@:ILNC xachain_1.xdff_0.m_mp6:@:pmos_vtl:@:lmin:@:ILNC xachain_1.xdff_0.m_mp7:@:pmos_vtl:@:lmin:@:ILNC xachain_1.xdff_0.m_mp4:@:pmos_vtl:@:lmin:@:ILNC xachain_1.xdff_0.m_mp3:@:pmos_vtl:@:lmin:@:ILNC xachain_1.xdff_0.m_mp5:@:pmos_vtl:@:lmin:@:ILNC xachain_1.xdff_0.m_mp1:@:pmos_vtl:@:lmin:@:ILNC xachain_1.xdff_0.m_mp8:@:pmos_vtl:@:lmin:@:ILNC xachain_1.xdff_0.m_mp9:@:pmos_vtl:@:lmin:@:ILNC xachain_1.xdff_0.m_mp12:@:pmos_vtl:@:lmin:@:ILNC xachain_1.xdff_0.m_mp11:@:pmos_vtl:@:lmin:@:ILNC xachain_1.xdff_0.m_mp10:@:pmos_vtl:@:lmin:@:ILNC xachain_1.xdff_0.m_mp14:@:pmos_vtl:@:lmin:@:ILNC xachain_1.xdff_0.m_mp13:@:pmos_vtl:@:lmin:@:ILNC xachain_2.xdff_0.m_mn2:@:nmos_vtl:@:lmin:@:ILNC xachain_2.xdff_0.m_mn6:@:nmos_vtl:@:lmin:@:ILNC xachain_2.xdff_0.m_mn7:@:nmos_vtl:@:lmin:@:ILNC xachain_2.xdff_0.m_mn4:@:nmos_vtl:@:lmin:@:ILNC xachain_2.xdff_0.m_mn3:@:nmos_vtl:@:lmin:@:ILNC xachain_2.xdff_0.m_mn5:@:nmos_vtl:@:lmin:@:ILNC xachain_2.xdff_0.m_mn1:@:nmos_vtl:@:lmin:@:ILNC xachain_2.xdff_0.m_mn8:@:nmos_vtl:@:lmin:@:ILNC xachain_2.xdff_0.m_mn9:@:nmos_vtl:@:lmin:@:ILNC xachain_2.xdff_0.m_mn12:@:nmos_vtl:@:lmin:@:ILNC xachain_2.xdff_0.m_mn11:@:nmos_vtl:@:lmin:@:ILNC xachain_2.xdff_0.m_mn10:@:nmos_vtl:@:lmin:@:ILNC xachain_2.xdff_0.m_mn14:@:nmos_vtl:@:lmin:@:ILNC xachain_2.xdff_0.m_mn13:@:nmos_vtl:@:lmin:@:ILNC xachain_2.xdff_0.m_mp2:@:pmos_vtl:@:lmin:@:ILNC xachain_2.xdff_0.m_mp6:@:pmos_vtl:@:lmin:@:ILNC xachain_2.xdff_0.m_mp7:@:pmos_vtl:@:lmin:@:ILNC xachain_2.xdff_0.m_mp4:@:pmos_vtl:@:lmin:@:ILNC xachain_2.xdff_0.m_mp3:@:pmos_vtl:@:lmin:@:ILNC xachain_2.xdff_0.m_mp5:@:pmos_vtl:@:lmin:@:ILNC xachain_2.xdff_0.m_mp1:@:pmos_vtl:@:lmin:@:ILNC xachain_2.xdff_0.m_mp8:@:pmos_vtl:@:lmin:@:ILNC xachain_2.xdff_0.m_mp9:@:pmos_vtl:@:lmin:@:ILNC xachain_2.xdff_0.m_mp12:@:pmos_vtl:@:lmin:@:ILNC xachain_2.xdff_0.m_mp11:@:pmos_vtl:@:lmin:@:ILNC xachain_2.xdff_0.m_mp10:@:pmos_vtl:@:lmin:@:ILNC xachain_2.xdff_0.m_mp14:@:pmos_vtl:@:lmin:@:ILNC xachain_2.xdff_0.m_mp13:@:pmos_vtl:@:lmin:@:ILNC xachain_3.xdff_0.m_mn2:@:nmos_vtl:@:lmin:@:ILNC xachain_3.xdff_0.m_mn6:@:nmos_vtl:@:lmin:@:ILNC xachain_3.xdff_0.m_mn7:@:nmos_vtl:@:lmin:@:ILNC xachain_3.xdff_0.m_mn4:@:nmos_vtl:@:lmin:@:ILNC xachain_3.xdff_0.m_mn3:@:nmos_vtl:@:lmin:@:ILNC xachain_3.xdff_0.m_mn5:@:nmos_vtl:@:lmin:@:ILNC xachain_3.xdff_0.m_mn1:@:nmos_vtl:@:lmin:@:ILNC xachain_3.xdff_0.m_mn8:@:nmos_vtl:@:lmin:@:ILNC xachain_3.xdff_0.m_mn9:@:nmos_vtl:@:lmin:@:ILNC xachain_3.xdff_0.m_mn12:@:nmos_vtl:@:lmin:@:ILNC xachain_3.xdff_0.m_mn11:@:nmos_vtl:@:lmin:@:ILNC xachain_3.xdff_0.m_mn10:@:nmos_vtl:@:lmin:@:ILNC xachain_3.xdff_0.m_mn14:@:nmos_vtl:@:lmin:@:ILNC xachain_3.xdff_0.m_mn13:@:nmos_vtl:@:lmin:@:ILNC xachain_3.xdff_0.m_mp2:@:pmos_vtl:@:lmin:@:ILNC xachain_3.xdff_0.m_mp6:@:pmos_vtl:@:lmin:@:ILNC xachain_3.xdff_0.m_mp7:@:pmos_vtl:@:lmin:@:ILNC xachain_3.xdff_0.m_mp4:@:pmos_vtl:@:lmin:@:ILNC xachain_3.xdff_0.m_mp3:@:pmos_vtl:@:lmin:@:ILNC xachain_3.xdff_0.m_mp5:@:pmos_vtl:@:lmin:@:ILNC xachain_3.xdff_0.m_mp1:@:pmos_vtl:@:lmin:@:ILNC xachain_3.xdff_0.m_mp8:@:pmos_vtl:@:lmin:@:ILNC xachain_3.xdff_0.m_mp9:@:pmos_vtl:@:lmin:@:ILNC xachain_3.xdff_0.m_mp12:@:pmos_vtl:@:lmin:@:ILNC xachain_3.xdff_0.m_mp11:@:pmos_vtl:@:lmin:@:ILNC xachain_3.xdff_0.m_mp10:@:pmos_vtl:@:lmin:@:ILNC xachain_3.xdff_0.m_mp14:@:pmos_vtl:@:lmin:@:ILNC xachain_3.xdff_0.m_mp13:@:pmos_vtl:@:lmin:@:ILNC xachain_4.xdff_0.m_mn2:@:nmos_vtl:@:lmin:@:ILNC xachain_4.xdff_0.m_mn6:@:nmos_vtl:@:lmin:@:ILNC xachain_4.xdff_0.m_mn7:@:nmos_vtl:@:lmin:@:ILNC xachain_4.xdff_0.m_mn4:@:nmos_vtl:@:lmin:@:ILNC xachain_4.xdff_0.m_mn3:@:nmos_vtl:@:lmin:@:ILNC xachain_4.xdff_0.m_mn5:@:nmos_vtl:@:lmin:@:ILNC xachain_4.xdff_0.m_mn1:@:nmos_vtl:@:lmin:@:ILNC xachain_4.xdff_0.m_mn8:@:nmos_vtl:@:lmin:@:ILNC xachain_4.xdff_0.m_mn9:@:nmos_vtl:@:lmin:@:ILNC xachain_4.xdff_0.m_mn12:@:nmos_vtl:@:lmin:@:ILNC xachain_4.xdff_0.m_mn11:@:nmos_vtl:@:lmin:@:ILNC xachain_4.xdff_0.m_mn10:@:nmos_vtl:@:lmin:@:ILNC xachain_4.xdff_0.m_mn14:@:nmos_vtl:@:lmin:@:ILNC xachain_4.xdff_0.m_mn13:@:nmos_vtl:@:lmin:@:ILNC xachain_4.xdff_0.m_mp2:@:pmos_vtl:@:lmin:@:ILNC xachain_4.xdff_0.m_mp6:@:pmos_vtl:@:lmin:@:ILNC xachain_4.xdff_0.m_mp7:@:pmos_vtl:@:lmin:@:ILNC xachain_4.xdff_0.m_mp4:@:pmos_vtl:@:lmin:@:ILNC xachain_4.xdff_0.m_mp3:@:pmos_vtl:@:lmin:@:ILNC xachain_4.xdff_0.m_mp5:@:pmos_vtl:@:lmin:@:ILNC xachain_4.xdff_0.m_mp1:@:pmos_vtl:@:lmin:@:ILNC xachain_4.xdff_0.m_mp8:@:pmos_vtl:@:lmin:@:ILNC xachain_4.xdff_0.m_mp9:@:pmos_vtl:@:lmin:@:ILNC xachain_4.xdff_0.m_mp12:@:pmos_vtl:@:lmin:@:ILNC xachain_4.xdff_0.m_mp11:@:pmos_vtl:@:lmin:@:ILNC xachain_4.xdff_0.m_mp10:@:pmos_vtl:@:lmin:@:ILNC xachain_4.xdff_0.m_mp14:@:pmos_vtl:@:lmin:@:ILNC xachain_4.xdff_0.m_mp13:@:pmos_vtl:@:lmin:@:ILNC xachain_5.xdff_0.m_mn2:@:nmos_vtl:@:lmin:@:ILNC xachain_5.xdff_0.m_mn6:@:nmos_vtl:@:lmin:@:ILNC xachain_5.xdff_0.m_mn7:@:nmos_vtl:@:lmin:@:ILNC xachain_5.xdff_0.m_mn4:@:nmos_vtl:@:lmin:@:ILNC xachain_5.xdff_0.m_mn3:@:nmos_vtl:@:lmin:@:ILNC xachain_5.xdff_0.m_mn5:@:nmos_vtl:@:lmin:@:ILNC xachain_5.xdff_0.m_mn1:@:nmos_vtl:@:lmin:@:ILNC xachain_5.xdff_0.m_mn8:@:nmos_vtl:@:lmin:@:ILNC xachain_5.xdff_0.m_mn9:@:nmos_vtl:@:lmin:@:ILNC xachain_5.xdff_0.m_mn12:@:nmos_vtl:@:lmin:@:ILNC xachain_5.xdff_0.m_mn11:@:nmos_vtl:@:lmin:@:ILNC xachain_5.xdff_0.m_mn10:@:nmos_vtl:@:lmin:@:ILNC xachain_5.xdff_0.m_mn14:@:nmos_vtl:@:lmin:@:ILNC xachain_5.xdff_0.m_mn13:@:nmos_vtl:@:lmin:@:ILNC xachain_5.xdff_0.m_mp2:@:pmos_vtl:@:lmin:@:ILNC xachain_5.xdff_0.m_mp6:@:pmos_vtl:@:lmin:@:ILNC xachain_5.xdff_0.m_mp7:@:pmos_vtl:@:lmin:@:ILNC xachain_5.xdff_0.m_mp4:@:pmos_vtl:@:lmin:@:ILNC xachain_5.xdff_0.m_mp3:@:pmos_vtl:@:lmin:@:ILNC xachain_5.xdff_0.m_mp5:@:pmos_vtl:@:lmin:@:ILNC xachain_5.xdff_0.m_mp1:@:pmos_vtl:@:lmin:@:ILNC xachain_5.xdff_0.m_mp8:@:pmos_vtl:@:lmin:@:ILNC xachain_5.xdff_0.m_mp9:@:pmos_vtl:@:lmin:@:ILNC xachain_5.xdff_0.m_mp12:@:pmos_vtl:@:lmin:@:ILNC xachain_5.xdff_0.m_mp11:@:pmos_vtl:@:lmin:@:ILNC xachain_5.xdff_0.m_mp10:@:pmos_vtl:@:lmin:@:ILNC xachain_5.xdff_0.m_mp14:@:pmos_vtl:@:lmin:@:ILNC xachain_5.xdff_0.m_mp13:@:pmos_vtl:@:lmin:@:ILNC xachain_6.xdff_0.m_mn2:@:nmos_vtl:@:lmin:@:ILNC xachain_6.xdff_0.m_mn6:@:nmos_vtl:@:lmin:@:ILNC xachain_6.xdff_0.m_mn7:@:nmos_vtl:@:lmin:@:ILNC xachain_6.xdff_0.m_mn4:@:nmos_vtl:@:lmin:@:ILNC xachain_6.xdff_0.m_mn3:@:nmos_vtl:@:lmin:@:ILNC xachain_6.xdff_0.m_mn5:@:nmos_vtl:@:lmin:@:ILNC xachain_6.xdff_0.m_mn1:@:nmos_vtl:@:lmin:@:ILNC xachain_6.xdff_0.m_mn8:@:nmos_vtl:@:lmin:@:ILNC xachain_6.xdff_0.m_mn9:@:nmos_vtl:@:lmin:@:ILNC xachain_6.xdff_0.m_mn12:@:nmos_vtl:@:lmin:@:ILNC xachain_6.xdff_0.m_mn11:@:nmos_vtl:@:lmin:@:ILNC xachain_6.xdff_0.m_mn10:@:nmos_vtl:@:lmin:@:ILNC xachain_6.xdff_0.m_mn14:@:nmos_vtl:@:lmin:@:ILNC xachain_6.xdff_0.m_mn13:@:nmos_vtl:@:lmin:@:ILNC xachain_6.xdff_0.m_mp2:@:pmos_vtl:@:lmin:@:ILNC xachain_6.xdff_0.m_mp6:@:pmos_vtl:@:lmin:@:ILNC xachain_6.xdff_0.m_mp7:@:pmos_vtl:@:lmin:@:ILNC xachain_6.xdff_0.m_mp4:@:pmos_vtl:@:lmin:@:ILNC xachain_6.xdff_0.m_mp3:@:pmos_vtl:@:lmin:@:ILNC xachain_6.xdff_0.m_mp5:@:pmos_vtl:@:lmin:@:ILNC xachain_6.xdff_0.m_mp1:@:pmos_vtl:@:lmin:@:ILNC xachain_6.xdff_0.m_mp8:@:pmos_vtl:@:lmin:@:ILNC xachain_6.xdff_0.m_mp9:@:pmos_vtl:@:lmin:@:ILNC xachain_6.xdff_0.m_mp12:@:pmos_vtl:@:lmin:@:ILNC xachain_6.xdff_0.m_mp11:@:pmos_vtl:@:lmin:@:ILNC xachain_6.xdff_0.m_mp10:@:pmos_vtl:@:lmin:@:ILNC xachain_6.xdff_0.m_mp14:@:pmos_vtl:@:lmin:@:ILNC xachain_6.xdff_0.m_mp13:@:pmos_vtl:@:lmin:@:ILNC xachain_7.xdff_0.m_mn2:@:nmos_vtl:@:lmin:@:ILNC xachain_7.xdff_0.m_mn6:@:nmos_vtl:@:lmin:@:ILNC xachain_7.xdff_0.m_mn7:@:nmos_vtl:@:lmin:@:ILNC xachain_7.xdff_0.m_mn4:@:nmos_vtl:@:lmin:@:ILNC xachain_7.xdff_0.m_mn3:@:nmos_vtl:@:lmin:@:ILNC xachain_7.xdff_0.m_mn5:@:nmos_vtl:@:lmin:@:ILNC xachain_7.xdff_0.m_mn1:@:nmos_vtl:@:lmin:@:ILNC xachain_7.xdff_0.m_mn8:@:nmos_vtl:@:lmin:@:ILNC xachain_7.xdff_0.m_mn9:@:nmos_vtl:@:lmin:@:ILNC xachain_7.xdff_0.m_mn12:@:nmos_vtl:@:lmin:@:ILNC xachain_7.xdff_0.m_mn11:@:nmos_vtl:@:lmin:@:ILNC xachain_7.xdff_0.m_mn10:@:nmos_vtl:@:lmin:@:ILNC xachain_7.xdff_0.m_mn14:@:nmos_vtl:@:lmin:@:ILNC xachain_7.xdff_0.m_mn13:@:nmos_vtl:@:lmin:@:ILNC xachain_7.xdff_0.m_mp2:@:pmos_vtl:@:lmin:@:ILNC xachain_7.xdff_0.m_mp6:@:pmos_vtl:@:lmin:@:ILNC xachain_7.xdff_0.m_mp7:@:pmos_vtl:@:lmin:@:ILNC xachain_7.xdff_0.m_mp4:@:pmos_vtl:@:lmin:@:ILNC xachain_7.xdff_0.m_mp3:@:pmos_vtl:@:lmin:@:ILNC xachain_7.xdff_0.m_mp5:@:pmos_vtl:@:lmin:@:ILNC xachain_7.xdff_0.m_mp1:@:pmos_vtl:@:lmin:@:ILNC xachain_7.xdff_0.m_mp8:@:pmos_vtl:@:lmin:@:ILNC xachain_7.xdff_0.m_mp9:@:pmos_vtl:@:lmin:@:ILNC xachain_7.xdff_0.m_mp12:@:pmos_vtl:@:lmin:@:ILNC xachain_7.xdff_0.m_mp11:@:pmos_vtl:@:lmin:@:ILNC xachain_7.xdff_0.m_mp10:@:pmos_vtl:@:lmin:@:ILNC xachain_7.xdff_0.m_mp14:@:pmos_vtl:@:lmin:@:ILNC xachain_7.xdff_0.m_mp13:@:pmos_vtl:@:lmin:@:ILNC xachain_0.xmux2to1_t0.xand_1.m_i_2:@:nmos_vtl:@:lmin:@:ILNC xachain_0.xmux2to1_t0.xand_1.m_i_3:@:nmos_vtl:@:lmin:@:ILNC xachain_0.xmux2to1_t0.xand_1.m_i_0:@:nmos_vtl:@:lmin:@:ILNC xachain_0.xmux2to1_t0.xand_1.m_i_10:@:pmos_vtl:@:lmin:@:ILNC xachain_0.xmux2to1_t0.xand_1.m_i_11:@:pmos_vtl:@:lmin:@:ILNC xachain_0.xmux2to1_t0.xand_1.m_i_1:@:pmos_vtl:@:lmin:@:ILNC xachain_0.xmux2to1_b0.xinv_0.m_i_0:@:nmos_vtl:@:lmin:@:ILNC xachain_0.xmux2to1_b0.xinv_0.m_i_10:@:pmos_vtl:@:lmin:@:ILNC xachain_0.xmux2to1_b0.xand_0.m_i_2:@:nmos_vtl:@:lmin:@:ILNC xachain_0.xmux2to1_b0.xand_0.m_i_3:@:nmos_vtl:@:lmin:@:ILNC xachain_0.xmux2to1_b0.xand_0.m_i_0:@:nmos_vtl:@:lmin:@:ILNC xachain_0.xmux2to1_b0.xand_0.m_i_10:@:pmos_vtl:@:lmin:@:ILNC xachain_0.xmux2to1_b0.xand_0.m_i_11:@:pmos_vtl:@:lmin:@:ILNC xachain_0.xmux2to1_b0.xand_0.m_i_1:@:pmos_vtl:@:lmin:@:ILNC xachain_0.xmux2to1_b0.xand_1.m_i_2:@:nmos_vtl:@:lmin:@:ILNC xachain_0.xmux2to1_b0.xand_1.m_i_3:@:nmos_vtl:@:lmin:@:ILNC xachain_0.xmux2to1_b0.xand_1.m_i_0:@:nmos_vtl:@:lmin:@:ILNC xachain_0.xmux2to1_b0.xand_1.m_i_10:@:pmos_vtl:@:lmin:@:ILNC xachain_0.xmux2to1_b0.xand_1.m_i_11:@:pmos_vtl:@:lmin:@:ILNC xachain_0.xmux2to1_b0.xand_1.m_i_1:@:pmos_vtl:@:lmin:@:ILNC xachain_0.xmux2to1_b0.xor_1.m_i_2:@:nmos_vtl:@:lmin:@:ILNC xachain_0.xmux2to1_b0.xor_1.m_i_3:@:nmos_vtl:@:lmin:@:ILNC xachain_0.xmux2to1_b0.xor_1.m_i_0:@:nmos_vtl:@:lmin:@:ILNC xachain_0.xmux2to1_b0.xor_1.m_i_10:@:pmos_vtl:@:lmin:@:ILNC xachain_0.xmux2to1_b0.xor_1.m_i_11:@:pmos_vtl:@:lmin:@:ILNC xachain_0.xmux2to1_b0.xor_1.m_i_1:@:pmos_vtl:@:lmin:@:ILNC xachain_0.xmux2to1_t1.xinv_0.m_i_0:@:nmos_vtl:@:lmin:@:ILNC xachain_0.xmux2to1_t1.xinv_0.m_i_10:@:pmos_vtl:@:lmin:@:ILNC xachain_0.xmux2to1_t1.xand_0.m_i_2:@:nmos_vtl:@:lmin:@:ILNC xachain_0.xmux2to1_t1.xand_0.m_i_3:@:nmos_vtl:@:lmin:@:ILNC xachain_0.xmux2to1_t1.xand_0.m_i_0:@:nmos_vtl:@:lmin:@:ILNC xachain_0.xmux2to1_t1.xand_0.m_i_10:@:pmos_vtl:@:lmin:@:ILNC xachain_0.xmux2to1_t1.xand_0.m_i_11:@:pmos_vtl:@:lmin:@:ILNC xachain_0.xmux2to1_t1.xand_0.m_i_1:@:pmos_vtl:@:lmin:@:ILNC xachain_0.xmux2to1_t1.xand_1.m_i_2:@:nmos_vtl:@:lmin:@:ILNC xachain_0.xmux2to1_t1.xand_1.m_i_3:@:nmos_vtl:@:lmin:@:ILNC xachain_0.xmux2to1_t1.xand_1.m_i_0:@:nmos_vtl:@:lmin:@:ILNC xachain_0.xmux2to1_t1.xand_1.m_i_10:@:pmos_vtl:@:lmin:@:ILNC xachain_0.xmux2to1_t1.xand_1.m_i_11:@:pmos_vtl:@:lmin:@:ILNC xachain_0.xmux2to1_t1.xand_1.m_i_1:@:pmos_vtl:@:lmin:@:ILNC xachain_0.xmux2to1_t1.xor_1.m_i_2:@:nmos_vtl:@:lmin:@:ILNC xachain_0.xmux2to1_t1.xor_1.m_i_3:@:nmos_vtl:@:lmin:@:ILNC xachain_0.xmux2to1_t1.xor_1.m_i_0:@:nmos_vtl:@:lmin:@:ILNC xachain_0.xmux2to1_t1.xor_1.m_i_10:@:pmos_vtl:@:lmin:@:ILNC xachain_0.xmux2to1_t1.xor_1.m_i_11:@:pmos_vtl:@:lmin:@:ILNC xachain_0.xmux2to1_t1.xor_1.m_i_1:@:pmos_vtl:@:lmin:@:ILNC xachain_0.xmux2to1_b1.xinv_0.m_i_0:@:nmos_vtl:@:lmin:@:ILNC xachain_0.xmux2to1_b1.xinv_0.m_i_10:@:pmos_vtl:@:lmin:@:ILNC xachain_0.xmux2to1_b1.xand_0.m_i_2:@:nmos_vtl:@:lmin:@:ILNC xachain_0.xmux2to1_b1.xand_0.m_i_3:@:nmos_vtl:@:lmin:@:ILNC xachain_0.xmux2to1_b1.xand_0.m_i_0:@:nmos_vtl:@:lmin:@:ILNC xachain_0.xmux2to1_b1.xand_0.m_i_10:@:pmos_vtl:@:lmin:@:ILNC xachain_0.xmux2to1_b1.xand_0.m_i_11:@:pmos_vtl:@:lmin:@:ILNC xachain_0.xmux2to1_b1.xand_0.m_i_1:@:pmos_vtl:@:lmin:@:ILNC xachain_0.xmux2to1_b1.xand_1.m_i_2:@:nmos_vtl:@:lmin:@:ILNC xachain_0.xmux2to1_b1.xand_1.m_i_3:@:nmos_vtl:@:lmin:@:ILNC xachain_0.xmux2to1_b1.xand_1.m_i_0:@:nmos_vtl:@:lmin:@:ILNC xachain_0.xmux2to1_b1.xand_1.m_i_10:@:pmos_vtl:@:lmin:@:ILNC xachain_0.xmux2to1_b1.xand_1.m_i_11:@:pmos_vtl:@:lmin:@:ILNC xachain_0.xmux2to1_b1.xand_1.m_i_1:@:pmos_vtl:@:lmin:@:ILNC xachain_0.xmux2to1_b1.xor_1.m_i_2:@:nmos_vtl:@:lmin:@:ILNC xachain_0.xmux2to1_b1.xor_1.m_i_3:@:nmos_vtl:@:lmin:@:ILNC xachain_0.xmux2to1_b1.xor_1.m_i_0:@:nmos_vtl:@:lmin:@:ILNC xachain_0.xmux2to1_b1.xor_1.m_i_10:@:pmos_vtl:@:lmin:@:ILNC xachain_0.xmux2to1_b1.xor_1.m_i_11:@:pmos_vtl:@:lmin:@:ILNC xachain_0.xmux2to1_b1.xor_1.m_i_1:@:pmos_vtl:@:lmin:@:ILNC xachain_0.xmux2to1_t2.xinv_0.m_i_0:@:nmos_vtl:@:lmin:@:ILNC xachain_0.xmux2to1_t2.xinv_0.m_i_10:@:pmos_vtl:@:lmin:@:ILNC xachain_0.xmux2to1_t2.xand_0.m_i_2:@:nmos_vtl:@:lmin:@:ILNC xachain_0.xmux2to1_t2.xand_0.m_i_3:@:nmos_vtl:@:lmin:@:ILNC xachain_0.xmux2to1_t2.xand_0.m_i_0:@:nmos_vtl:@:lmin:@:ILNC xachain_0.xmux2to1_t2.xand_0.m_i_10:@:pmos_vtl:@:lmin:@:ILNC xachain_0.xmux2to1_t2.xand_0.m_i_11:@:pmos_vtl:@:lmin:@:ILNC xachain_0.xmux2to1_t2.xand_0.m_i_1:@:pmos_vtl:@:lmin:@:ILNC xachain_0.xmux2to1_t2.xand_1.m_i_2:@:nmos_vtl:@:lmin:@:ILNC xachain_0.xmux2to1_t2.xand_1.m_i_3:@:nmos_vtl:@:lmin:@:ILNC xachain_0.xmux2to1_t2.xand_1.m_i_0:@:nmos_vtl:@:lmin:@:ILNC xachain_0.xmux2to1_t2.xand_1.m_i_10:@:pmos_vtl:@:lmin:@:ILNC xachain_0.xmux2to1_t2.xand_1.m_i_11:@:pmos_vtl:@:lmin:@:ILNC xachain_0.xmux2to1_t2.xand_1.m_i_1:@:pmos_vtl:@:lmin:@:ILNC xachain_0.xmux2to1_t2.xor_1.m_i_2:@:nmos_vtl:@:lmin:@:ILNC xachain_0.xmux2to1_t2.xor_1.m_i_3:@:nmos_vtl:@:lmin:@:ILNC xachain_0.xmux2to1_t2.xor_1.m_i_0:@:nmos_vtl:@:lmin:@:ILNC xachain_0.xmux2to1_t2.xor_1.m_i_10:@:pmos_vtl:@:lmin:@:ILNC xachain_0.xmux2to1_t2.xor_1.m_i_11:@:pmos_vtl:@:lmin:@:ILNC xachain_0.xmux2to1_t2.xor_1.m_i_1:@:pmos_vtl:@:lmin:@:ILNC xachain_0.xmux2to1_b2.xinv_0.m_i_0:@:nmos_vtl:@:lmin:@:ILNC xachain_0.xmux2to1_b2.xinv_0.m_i_10:@:pmos_vtl:@:lmin:@:ILNC xachain_0.xmux2to1_b2.xand_0.m_i_2:@:nmos_vtl:@:lmin:@:ILNC xachain_0.xmux2to1_b2.xand_0.m_i_3:@:nmos_vtl:@:lmin:@:ILNC xachain_0.xmux2to1_b2.xand_0.m_i_0:@:nmos_vtl:@:lmin:@:ILNC xachain_0.xmux2to1_b2.xand_0.m_i_10:@:pmos_vtl:@:lmin:@:ILNC xachain_0.xmux2to1_b2.xand_0.m_i_11:@:pmos_vtl:@:lmin:@:ILNC xachain_0.xmux2to1_b2.xand_0.m_i_1:@:pmos_vtl:@:lmin:@:ILNC xachain_0.xmux2to1_b2.xand_1.m_i_2:@:nmos_vtl:@:lmin:@:ILNC xachain_0.xmux2to1_b2.xand_1.m_i_3:@:nmos_vtl:@:lmin:@:ILNC xachain_0.xmux2to1_b2.xand_1.m_i_0:@:nmos_vtl:@:lmin:@:ILNC xachain_0.xmux2to1_b2.xand_1.m_i_10:@:pmos_vtl:@:lmin:@:ILNC xachain_0.xmux2to1_b2.xand_1.m_i_11:@:pmos_vtl:@:lmin:@:ILNC xachain_0.xmux2to1_b2.xand_1.m_i_1:@:pmos_vtl:@:lmin:@:ILNC xachain_0.xmux2to1_b2.xor_1.m_i_2:@:nmos_vtl:@:lmin:@:ILNC xachain_0.xmux2to1_b2.xor_1.m_i_3:@:nmos_vtl:@:lmin:@:ILNC xachain_0.xmux2to1_b2.xor_1.m_i_0:@:nmos_vtl:@:lmin:@:ILNC xachain_0.xmux2to1_b2.xor_1.m_i_10:@:pmos_vtl:@:lmin:@:ILNC xachain_0.xmux2to1_b2.xor_1.m_i_11:@:pmos_vtl:@:lmin:@:ILNC xachain_0.xmux2to1_b2.xor_1.m_i_1:@:pmos_vtl:@:lmin:@:ILNC xachain_0.xmux2to1_t3.xinv_0.m_i_0:@:nmos_vtl:@:lmin:@:ILNC xachain_0.xmux2to1_t3.xinv_0.m_i_10:@:pmos_vtl:@:lmin:@:ILNC xachain_0.xmux2to1_t3.xand_0.m_i_2:@:nmos_vtl:@:lmin:@:ILNC xachain_0.xmux2to1_t3.xand_0.m_i_3:@:nmos_vtl:@:lmin:@:ILNC xachain_0.xmux2to1_t3.xand_0.m_i_0:@:nmos_vtl:@:lmin:@:ILNC xachain_0.xmux2to1_t3.xand_0.m_i_10:@:pmos_vtl:@:lmin:@:ILNC xachain_0.xmux2to1_t3.xand_0.m_i_11:@:pmos_vtl:@:lmin:@:ILNC xachain_0.xmux2to1_t3.xand_0.m_i_1:@:pmos_vtl:@:lmin:@:ILNC xachain_0.xmux2to1_t3.xand_1.m_i_2:@:nmos_vtl:@:lmin:@:ILNC xachain_0.xmux2to1_t3.xand_1.m_i_3:@:nmos_vtl:@:lmin:@:ILNC xachain_0.xmux2to1_t3.xand_1.m_i_0:@:nmos_vtl:@:lmin:@:ILNC xachain_0.xmux2to1_t3.xand_1.m_i_10:@:pmos_vtl:@:lmin:@:ILNC xachain_0.xmux2to1_t3.xand_1.m_i_11:@:pmos_vtl:@:lmin:@:ILNC xachain_0.xmux2to1_t3.xand_1.m_i_1:@:pmos_vtl:@:lmin:@:ILNC xachain_0.xmux2to1_t3.xor_1.m_i_2:@:nmos_vtl:@:lmin:@:ILNC xachain_0.xmux2to1_t3.xor_1.m_i_3:@:nmos_vtl:@:lmin:@:ILNC xachain_0.xmux2to1_t3.xor_1.m_i_0:@:nmos_vtl:@:lmin:@:ILNC xachain_0.xmux2to1_t3.xor_1.m_i_10:@:pmos_vtl:@:lmin:@:ILNC xachain_0.xmux2to1_t3.xor_1.m_i_11:@:pmos_vtl:@:lmin:@:ILNC xachain_0.xmux2to1_t3.xor_1.m_i_1:@:pmos_vtl:@:lmin:@:ILNC xachain_0.xmux2to1_b3.xinv_0.m_i_0:@:nmos_vtl:@:lmin:@:ILNC xachain_0.xmux2to1_b3.xinv_0.m_i_10:@:pmos_vtl:@:lmin:@:ILNC xachain_0.xmux2to1_b3.xand_0.m_i_2:@:nmos_vtl:@:lmin:@:ILNC xachain_0.xmux2to1_b3.xand_0.m_i_3:@:nmos_vtl:@:lmin:@:ILNC xachain_0.xmux2to1_b3.xand_0.m_i_0:@:nmos_vtl:@:lmin:@:ILNC xachain_0.xmux2to1_b3.xand_0.m_i_10:@:pmos_vtl:@:lmin:@:ILNC xachain_0.xmux2to1_b3.xand_0.m_i_11:@:pmos_vtl:@:lmin:@:ILNC xachain_0.xmux2to1_b3.xand_0.m_i_1:@:pmos_vtl:@:lmin:@:ILNC xachain_0.xmux2to1_b3.xand_1.m_i_2:@:nmos_vtl:@:lmin:@:ILNC xachain_0.xmux2to1_b3.xand_1.m_i_3:@:nmos_vtl:@:lmin:@:ILNC xachain_0.xmux2to1_b3.xand_1.m_i_0:@:nmos_vtl:@:lmin:@:ILNC xachain_0.xmux2to1_b3.xand_1.m_i_10:@:pmos_vtl:@:lmin:@:ILNC xachain_0.xmux2to1_b3.xand_1.m_i_11:@:pmos_vtl:@:lmin:@:ILNC xachain_0.xmux2to1_b3.xand_1.m_i_1:@:pmos_vtl:@:lmin:@:ILNC xachain_0.xmux2to1_b3.xor_1.m_i_2:@:nmos_vtl:@:lmin:@:ILNC xachain_0.xmux2to1_b3.xor_1.m_i_3:@:nmos_vtl:@:lmin:@:ILNC xachain_0.xmux2to1_b3.xor_1.m_i_0:@:nmos_vtl:@:lmin:@:ILNC xachain_0.xmux2to1_b3.xor_1.m_i_10:@:pmos_vtl:@:lmin:@:ILNC xachain_0.xmux2to1_b3.xor_1.m_i_11:@:pmos_vtl:@:lmin:@:ILNC xachain_0.xmux2to1_b3.xor_1.m_i_1:@:pmos_vtl:@:lmin:@:ILNC xachain_0.xmux2to1_t4.xinv_0.m_i_0:@:nmos_vtl:@:lmin:@:ILNC xachain_0.xmux2to1_t4.xinv_0.m_i_10:@:pmos_vtl:@:lmin:@:ILNC xachain_0.xmux2to1_t4.xand_0.m_i_2:@:nmos_vtl:@:lmin:@:ILNC xachain_0.xmux2to1_t4.xand_0.m_i_3:@:nmos_vtl:@:lmin:@:ILNC xachain_0.xmux2to1_t4.xand_0.m_i_0:@:nmos_vtl:@:lmin:@:ILNC xachain_0.xmux2to1_t4.xand_0.m_i_10:@:pmos_vtl:@:lmin:@:ILNC xachain_0.xmux2to1_t4.xand_0.m_i_11:@:pmos_vtl:@:lmin:@:ILNC xachain_0.xmux2to1_t4.xand_0.m_i_1:@:pmos_vtl:@:lmin:@:ILNC xachain_0.xmux2to1_t4.xand_1.m_i_2:@:nmos_vtl:@:lmin:@:ILNC xachain_0.xmux2to1_t4.xand_1.m_i_3:@:nmos_vtl:@:lmin:@:ILNC xachain_0.xmux2to1_t4.xand_1.m_i_0:@:nmos_vtl:@:lmin:@:ILNC xachain_0.xmux2to1_t4.xand_1.m_i_10:@:pmos_vtl:@:lmin:@:ILNC xachain_0.xmux2to1_t4.xand_1.m_i_11:@:pmos_vtl:@:lmin:@:ILNC xachain_0.xmux2to1_t4.xand_1.m_i_1:@:pmos_vtl:@:lmin:@:ILNC xachain_0.xmux2to1_t4.xor_1.m_i_2:@:nmos_vtl:@:lmin:@:ILNC xachain_0.xmux2to1_t4.xor_1.m_i_3:@:nmos_vtl:@:lmin:@:ILNC xachain_0.xmux2to1_t4.xor_1.m_i_0:@:nmos_vtl:@:lmin:@:ILNC xachain_0.xmux2to1_t4.xor_1.m_i_10:@:pmos_vtl:@:lmin:@:ILNC xachain_0.xmux2to1_t4.xor_1.m_i_11:@:pmos_vtl:@:lmin:@:ILNC xachain_0.xmux2to1_t4.xor_1.m_i_1:@:pmos_vtl:@:lmin:@:ILNC xachain_0.xmux2to1_b4.xinv_0.m_i_0:@:nmos_vtl:@:lmin:@:ILNC xachain_0.xmux2to1_b4.xinv_0.m_i_10:@:pmos_vtl:@:lmin:@:ILNC xachain_0.xmux2to1_b4.xand_0.m_i_2:@:nmos_vtl:@:lmin:@:ILNC xachain_0.xmux2to1_b4.xand_0.m_i_3:@:nmos_vtl:@:lmin:@:ILNC xachain_0.xmux2to1_b4.xand_0.m_i_0:@:nmos_vtl:@:lmin:@:ILNC xachain_0.xmux2to1_b4.xand_0.m_i_10:@:pmos_vtl:@:lmin:@:ILNC xachain_0.xmux2to1_b4.xand_0.m_i_11:@:pmos_vtl:@:lmin:@:ILNC xachain_0.xmux2to1_b4.xand_0.m_i_1:@:pmos_vtl:@:lmin:@:ILNC xachain_0.xmux2to1_b4.xand_1.m_i_2:@:nmos_vtl:@:lmin:@:ILNC xachain_0.xmux2to1_b4.xand_1.m_i_3:@:nmos_vtl:@:lmin:@:ILNC xachain_0.xmux2to1_b4.xand_1.m_i_0:@:nmos_vtl:@:lmin:@:ILNC xachain_0.xmux2to1_b4.xand_1.m_i_10:@:pmos_vtl:@:lmin:@:ILNC xachain_0.xmux2to1_b4.xand_1.m_i_11:@:pmos_vtl:@:lmin:@:ILNC xachain_0.xmux2to1_b4.xand_1.m_i_1:@:pmos_vtl:@:lmin:@:ILNC xachain_0.xmux2to1_b4.xor_1.m_i_2:@:nmos_vtl:@:lmin:@:ILNC xachain_0.xmux2to1_b4.xor_1.m_i_3:@:nmos_vtl:@:lmin:@:ILNC xachain_0.xmux2to1_b4.xor_1.m_i_0:@:nmos_vtl:@:lmin:@:ILNC xachain_0.xmux2to1_b4.xor_1.m_i_10:@:pmos_vtl:@:lmin:@:ILNC xachain_0.xmux2to1_b4.xor_1.m_i_11:@:pmos_vtl:@:lmin:@:ILNC xachain_0.xmux2to1_b4.xor_1.m_i_1:@:pmos_vtl:@:lmin:@:ILNC xachain_0.xmux2to1_t5.xinv_0.m_i_0:@:nmos_vtl:@:lmin:@:ILNC xachain_0.xmux2to1_t5.xinv_0.m_i_10:@:pmos_vtl:@:lmin:@:ILNC xachain_0.xmux2to1_t5.xand_0.m_i_2:@:nmos_vtl:@:lmin:@:ILNC xachain_0.xmux2to1_t5.xand_0.m_i_3:@:nmos_vtl:@:lmin:@:ILNC xachain_0.xmux2to1_t5.xand_0.m_i_0:@:nmos_vtl:@:lmin:@:ILNC xachain_0.xmux2to1_t5.xand_0.m_i_10:@:pmos_vtl:@:lmin:@:ILNC xachain_0.xmux2to1_t5.xand_0.m_i_11:@:pmos_vtl:@:lmin:@:ILNC xachain_0.xmux2to1_t5.xand_0.m_i_1:@:pmos_vtl:@:lmin:@:ILNC xachain_0.xmux2to1_t5.xand_1.m_i_2:@:nmos_vtl:@:lmin:@:ILNC xachain_0.xmux2to1_t5.xand_1.m_i_3:@:nmos_vtl:@:lmin:@:ILNC xachain_0.xmux2to1_t5.xand_1.m_i_0:@:nmos_vtl:@:lmin:@:ILNC xachain_0.xmux2to1_t5.xand_1.m_i_10:@:pmos_vtl:@:lmin:@:ILNC xachain_0.xmux2to1_t5.xand_1.m_i_11:@:pmos_vtl:@:lmin:@:ILNC xachain_0.xmux2to1_t5.xand_1.m_i_1:@:pmos_vtl:@:lmin:@:ILNC xachain_0.xmux2to1_t5.xor_1.m_i_2:@:nmos_vtl:@:lmin:@:ILNC xachain_0.xmux2to1_t5.xor_1.m_i_3:@:nmos_vtl:@:lmin:@:ILNC xachain_0.xmux2to1_t5.xor_1.m_i_0:@:nmos_vtl:@:lmin:@:ILNC xachain_0.xmux2to1_t5.xor_1.m_i_10:@:pmos_vtl:@:lmin:@:ILNC xachain_0.xmux2to1_t5.xor_1.m_i_11:@:pmos_vtl:@:lmin:@:ILNC xachain_0.xmux2to1_t5.xor_1.m_i_1:@:pmos_vtl:@:lmin:@:ILNC xachain_0.xmux2to1_b5.xinv_0.m_i_0:@:nmos_vtl:@:lmin:@:ILNC xachain_0.xmux2to1_b5.xinv_0.m_i_10:@:pmos_vtl:@:lmin:@:ILNC xachain_0.xmux2to1_b5.xand_0.m_i_2:@:nmos_vtl:@:lmin:@:ILNC xachain_0.xmux2to1_b5.xand_0.m_i_3:@:nmos_vtl:@:lmin:@:ILNC xachain_0.xmux2to1_b5.xand_0.m_i_0:@:nmos_vtl:@:lmin:@:ILNC xachain_0.xmux2to1_b5.xand_0.m_i_10:@:pmos_vtl:@:lmin:@:ILNC xachain_0.xmux2to1_b5.xand_0.m_i_11:@:pmos_vtl:@:lmin:@:ILNC xachain_0.xmux2to1_b5.xand_0.m_i_1:@:pmos_vtl:@:lmin:@:ILNC xachain_0.xmux2to1_b5.xand_1.m_i_2:@:nmos_vtl:@:lmin:@:ILNC xachain_0.xmux2to1_b5.xand_1.m_i_3:@:nmos_vtl:@:lmin:@:ILNC xachain_0.xmux2to1_b5.xand_1.m_i_0:@:nmos_vtl:@:lmin:@:ILNC xachain_0.xmux2to1_b5.xand_1.m_i_10:@:pmos_vtl:@:lmin:@:ILNC xachain_0.xmux2to1_b5.xand_1.m_i_11:@:pmos_vtl:@:lmin:@:ILNC xachain_0.xmux2to1_b5.xand_1.m_i_1:@:pmos_vtl:@:lmin:@:ILNC xachain_0.xmux2to1_b5.xor_1.m_i_2:@:nmos_vtl:@:lmin:@:ILNC xachain_0.xmux2to1_b5.xor_1.m_i_3:@:nmos_vtl:@:lmin:@:ILNC xachain_0.xmux2to1_b5.xor_1.m_i_0:@:nmos_vtl:@:lmin:@:ILNC xachain_0.xmux2to1_b5.xor_1.m_i_10:@:pmos_vtl:@:lmin:@:ILNC xachain_0.xmux2to1_b5.xor_1.m_i_11:@:pmos_vtl:@:lmin:@:ILNC xachain_0.xmux2to1_b5.xor_1.m_i_1:@:pmos_vtl:@:lmin:@:ILNC xachain_0.xmux2to1_t6.xinv_0.m_i_0:@:nmos_vtl:@:lmin:@:ILNC xachain_0.xmux2to1_t6.xinv_0.m_i_10:@:pmos_vtl:@:lmin:@:ILNC xachain_0.xmux2to1_t6.xand_0.m_i_2:@:nmos_vtl:@:lmin:@:ILNC xachain_0.xmux2to1_t6.xand_0.m_i_3:@:nmos_vtl:@:lmin:@:ILNC xachain_0.xmux2to1_t6.xand_0.m_i_0:@:nmos_vtl:@:lmin:@:ILNC xachain_0.xmux2to1_t6.xand_0.m_i_10:@:pmos_vtl:@:lmin:@:ILNC xachain_0.xmux2to1_t6.xand_0.m_i_11:@:pmos_vtl:@:lmin:@:ILNC xachain_0.xmux2to1_t6.xand_0.m_i_1:@:pmos_vtl:@:lmin:@:ILNC xachain_0.xmux2to1_t6.xand_1.m_i_2:@:nmos_vtl:@:lmin:@:ILNC xachain_0.xmux2to1_t6.xand_1.m_i_3:@:nmos_vtl:@:lmin:@:ILNC xachain_0.xmux2to1_t6.xand_1.m_i_0:@:nmos_vtl:@:lmin:@:ILNC xachain_0.xmux2to1_t6.xand_1.m_i_10:@:pmos_vtl:@:lmin:@:ILNC xachain_0.xmux2to1_t6.xand_1.m_i_11:@:pmos_vtl:@:lmin:@:ILNC xachain_0.xmux2to1_t6.xand_1.m_i_1:@:pmos_vtl:@:lmin:@:ILNC xachain_0.xmux2to1_t6.xor_1.m_i_2:@:nmos_vtl:@:lmin:@:ILNC xachain_0.xmux2to1_t6.xor_1.m_i_3:@:nmos_vtl:@:lmin:@:ILNC xachain_0.xmux2to1_t6.xor_1.m_i_0:@:nmos_vtl:@:lmin:@:ILNC xachain_0.xmux2to1_t6.xor_1.m_i_10:@:pmos_vtl:@:lmin:@:ILNC xachain_0.xmux2to1_t6.xor_1.m_i_11:@:pmos_vtl:@:lmin:@:ILNC xachain_0.xmux2to1_t6.xor_1.m_i_1:@:pmos_vtl:@:lmin:@:ILNC xachain_0.xmux2to1_b6.xinv_0.m_i_0:@:nmos_vtl:@:lmin:@:ILNC xachain_0.xmux2to1_b6.xinv_0.m_i_10:@:pmos_vtl:@:lmin:@:ILNC xachain_0.xmux2to1_b6.xand_0.m_i_2:@:nmos_vtl:@:lmin:@:ILNC xachain_0.xmux2to1_b6.xand_0.m_i_3:@:nmos_vtl:@:lmin:@:ILNC xachain_0.xmux2to1_b6.xand_0.m_i_0:@:nmos_vtl:@:lmin:@:ILNC xachain_0.xmux2to1_b6.xand_0.m_i_10:@:pmos_vtl:@:lmin:@:ILNC xachain_0.xmux2to1_b6.xand_0.m_i_11:@:pmos_vtl:@:lmin:@:ILNC xachain_0.xmux2to1_b6.xand_0.m_i_1:@:pmos_vtl:@:lmin:@:ILNC xachain_0.xmux2to1_b6.xand_1.m_i_2:@:nmos_vtl:@:lmin:@:ILNC xachain_0.xmux2to1_b6.xand_1.m_i_3:@:nmos_vtl:@:lmin:@:ILNC xachain_0.xmux2to1_b6.xand_1.m_i_0:@:nmos_vtl:@:lmin:@:ILNC xachain_0.xmux2to1_b6.xand_1.m_i_10:@:pmos_vtl:@:lmin:@:ILNC xachain_0.xmux2to1_b6.xand_1.m_i_11:@:pmos_vtl:@:lmin:@:ILNC xachain_0.xmux2to1_b6.xand_1.m_i_1:@:pmos_vtl:@:lmin:@:ILNC xachain_0.xmux2to1_b6.xor_1.m_i_2:@:nmos_vtl:@:lmin:@:ILNC xachain_0.xmux2to1_b6.xor_1.m_i_3:@:nmos_vtl:@:lmin:@:ILNC xachain_0.xmux2to1_b6.xor_1.m_i_0:@:nmos_vtl:@:lmin:@:ILNC xachain_0.xmux2to1_b6.xor_1.m_i_10:@:pmos_vtl:@:lmin:@:ILNC xachain_0.xmux2to1_b6.xor_1.m_i_11:@:pmos_vtl:@:lmin:@:ILNC xachain_0.xmux2to1_b6.xor_1.m_i_1:@:pmos_vtl:@:lmin:@:ILNC xachain_0.xmux2to1_t7.xinv_0.m_i_0:@:nmos_vtl:@:lmin:@:ILNC xachain_0.xmux2to1_t7.xinv_0.m_i_10:@:pmos_vtl:@:lmin:@:ILNC xachain_0.xmux2to1_t7.xand_0.m_i_2:@:nmos_vtl:@:lmin:@:ILNC xachain_0.xmux2to1_t7.xand_0.m_i_3:@:nmos_vtl:@:lmin:@:ILNC xachain_0.xmux2to1_t7.xand_0.m_i_0:@:nmos_vtl:@:lmin:@:ILNC xachain_0.xmux2to1_t7.xand_0.m_i_10:@:pmos_vtl:@:lmin:@:ILNC xachain_0.xmux2to1_t7.xand_0.m_i_11:@:pmos_vtl:@:lmin:@:ILNC xachain_0.xmux2to1_t7.xand_0.m_i_1:@:pmos_vtl:@:lmin:@:ILNC xachain_0.xmux2to1_t7.xand_1.m_i_2:@:nmos_vtl:@:lmin:@:ILNC xachain_0.xmux2to1_t7.xand_1.m_i_3:@:nmos_vtl:@:lmin:@:ILNC xachain_0.xmux2to1_t7.xand_1.m_i_0:@:nmos_vtl:@:lmin:@:ILNC xachain_0.xmux2to1_t7.xand_1.m_i_10:@:pmos_vtl:@:lmin:@:ILNC xachain_0.xmux2to1_t7.xand_1.m_i_11:@:pmos_vtl:@:lmin:@:ILNC xachain_0.xmux2to1_t7.xand_1.m_i_1:@:pmos_vtl:@:lmin:@:ILNC xachain_0.xmux2to1_t7.xor_1.m_i_2:@:nmos_vtl:@:lmin:@:ILNC xachain_0.xmux2to1_t7.xor_1.m_i_3:@:nmos_vtl:@:lmin:@:ILNC xachain_0.xmux2to1_t7.xor_1.m_i_0:@:nmos_vtl:@:lmin:@:ILNC xachain_0.xmux2to1_t7.xor_1.m_i_10:@:pmos_vtl:@:lmin:@:ILNC xachain_0.xmux2to1_t7.xor_1.m_i_11:@:pmos_vtl:@:lmin:@:ILNC xachain_0.xmux2to1_t7.xor_1.m_i_1:@:pmos_vtl:@:lmin:@:ILNC xachain_0.xmux2to1_b7.xinv_0.m_i_0:@:nmos_vtl:@:lmin:@:ILNC xachain_0.xmux2to1_b7.xinv_0.m_i_10:@:pmos_vtl:@:lmin:@:ILNC xachain_0.xmux2to1_b7.xand_0.m_i_2:@:nmos_vtl:@:lmin:@:ILNC xachain_0.xmux2to1_b7.xand_0.m_i_3:@:nmos_vtl:@:lmin:@:ILNC xachain_0.xmux2to1_b7.xand_0.m_i_0:@:nmos_vtl:@:lmin:@:ILNC xachain_0.xmux2to1_b7.xand_0.m_i_10:@:pmos_vtl:@:lmin:@:ILNC xachain_0.xmux2to1_b7.xand_0.m_i_11:@:pmos_vtl:@:lmin:@:ILNC xachain_0.xmux2to1_b7.xand_0.m_i_1:@:pmos_vtl:@:lmin:@:ILNC xachain_0.xmux2to1_b7.xand_1.m_i_2:@:nmos_vtl:@:lmin:@:ILNC xachain_0.xmux2to1_b7.xand_1.m_i_3:@:nmos_vtl:@:lmin:@:ILNC xachain_0.xmux2to1_b7.xand_1.m_i_0:@:nmos_vtl:@:lmin:@:ILNC xachain_0.xmux2to1_b7.xand_1.m_i_10:@:pmos_vtl:@:lmin:@:ILNC xachain_0.xmux2to1_b7.xand_1.m_i_11:@:pmos_vtl:@:lmin:@:ILNC xachain_0.xmux2to1_b7.xand_1.m_i_1:@:pmos_vtl:@:lmin:@:ILNC xachain_0.xmux2to1_b7.xor_1.m_i_2:@:nmos_vtl:@:lmin:@:ILNC xachain_0.xmux2to1_b7.xor_1.m_i_3:@:nmos_vtl:@:lmin:@:ILNC xachain_0.xmux2to1_b7.xor_1.m_i_0:@:nmos_vtl:@:lmin:@:ILNC xachain_0.xmux2to1_b7.xor_1.m_i_10:@:pmos_vtl:@:lmin:@:ILNC xachain_0.xmux2to1_b7.xor_1.m_i_11:@:pmos_vtl:@:lmin:@:ILNC xachain_0.xmux2to1_b7.xor_1.m_i_1:@:pmos_vtl:@:lmin:@:ILNC xachain_0.xmux2to1_t8.xinv_0.m_i_0:@:nmos_vtl:@:lmin:@:ILNC xachain_0.xmux2to1_t8.xinv_0.m_i_10:@:pmos_vtl:@:lmin:@:ILNC xachain_0.xmux2to1_t8.xand_0.m_i_2:@:nmos_vtl:@:lmin:@:ILNC xachain_0.xmux2to1_t8.xand_0.m_i_3:@:nmos_vtl:@:lmin:@:ILNC xachain_0.xmux2to1_t8.xand_0.m_i_0:@:nmos_vtl:@:lmin:@:ILNC xachain_0.xmux2to1_t8.xand_0.m_i_10:@:pmos_vtl:@:lmin:@:ILNC xachain_0.xmux2to1_t8.xand_0.m_i_11:@:pmos_vtl:@:lmin:@:ILNC xachain_0.xmux2to1_t8.xand_0.m_i_1:@:pmos_vtl:@:lmin:@:ILNC xachain_0.xmux2to1_t8.xand_1.m_i_2:@:nmos_vtl:@:lmin:@:ILNC xachain_0.xmux2to1_t8.xand_1.m_i_3:@:nmos_vtl:@:lmin:@:ILNC xachain_0.xmux2to1_t8.xand_1.m_i_0:@:nmos_vtl:@:lmin:@:ILNC xachain_0.xmux2to1_t8.xand_1.m_i_10:@:pmos_vtl:@:lmin:@:ILNC xachain_0.xmux2to1_t8.xand_1.m_i_11:@:pmos_vtl:@:lmin:@:ILNC xachain_0.xmux2to1_t8.xand_1.m_i_1:@:pmos_vtl:@:lmin:@:ILNC xachain_0.xmux2to1_t8.xor_1.m_i_2:@:nmos_vtl:@:lmin:@:ILNC xachain_0.xmux2to1_t8.xor_1.m_i_3:@:nmos_vtl:@:lmin:@:ILNC xachain_0.xmux2to1_t8.xor_1.m_i_0:@:nmos_vtl:@:lmin:@:ILNC xachain_0.xmux2to1_t8.xor_1.m_i_10:@:pmos_vtl:@:lmin:@:ILNC xachain_0.xmux2to1_t8.xor_1.m_i_11:@:pmos_vtl:@:lmin:@:ILNC xachain_0.xmux2to1_t8.xor_1.m_i_1:@:pmos_vtl:@:lmin:@:ILNC xachain_0.xmux2to1_b8.xinv_0.m_i_0:@:nmos_vtl:@:lmin:@:ILNC xachain_0.xmux2to1_b8.xinv_0.m_i_10:@:pmos_vtl:@:lmin:@:ILNC xachain_0.xmux2to1_b8.xand_0.m_i_2:@:nmos_vtl:@:lmin:@:ILNC xachain_0.xmux2to1_b8.xand_0.m_i_3:@:nmos_vtl:@:lmin:@:ILNC xachain_0.xmux2to1_b8.xand_0.m_i_0:@:nmos_vtl:@:lmin:@:ILNC xachain_0.xmux2to1_b8.xand_0.m_i_10:@:pmos_vtl:@:lmin:@:ILNC xachain_0.xmux2to1_b8.xand_0.m_i_11:@:pmos_vtl:@:lmin:@:ILNC xachain_0.xmux2to1_b8.xand_0.m_i_1:@:pmos_vtl:@:lmin:@:ILNC xachain_0.xmux2to1_b8.xand_1.m_i_2:@:nmos_vtl:@:lmin:@:ILNC xachain_0.xmux2to1_b8.xand_1.m_i_3:@:nmos_vtl:@:lmin:@:ILNC xachain_0.xmux2to1_b8.xand_1.m_i_0:@:nmos_vtl:@:lmin:@:ILNC xachain_0.xmux2to1_b8.xand_1.m_i_10:@:pmos_vtl:@:lmin:@:ILNC xachain_0.xmux2to1_b8.xand_1.m_i_11:@:pmos_vtl:@:lmin:@:ILNC xachain_0.xmux2to1_b8.xand_1.m_i_1:@:pmos_vtl:@:lmin:@:ILNC xachain_0.xmux2to1_b8.xor_1.m_i_2:@:nmos_vtl:@:lmin:@:ILNC xachain_0.xmux2to1_b8.xor_1.m_i_3:@:nmos_vtl:@:lmin:@:ILNC xachain_0.xmux2to1_b8.xor_1.m_i_0:@:nmos_vtl:@:lmin:@:ILNC xachain_0.xmux2to1_b8.xor_1.m_i_10:@:pmos_vtl:@:lmin:@:ILNC xachain_0.xmux2to1_b8.xor_1.m_i_11:@:pmos_vtl:@:lmin:@:ILNC xachain_0.xmux2to1_b8.xor_1.m_i_1:@:pmos_vtl:@:lmin:@:ILNC xachain_0.xmux2to1_t9.xinv_0.m_i_0:@:nmos_vtl:@:lmin:@:ILNC xachain_0.xmux2to1_t9.xinv_0.m_i_10:@:pmos_vtl:@:lmin:@:ILNC xachain_0.xmux2to1_t9.xand_0.m_i_2:@:nmos_vtl:@:lmin:@:ILNC xachain_0.xmux2to1_t9.xand_0.m_i_3:@:nmos_vtl:@:lmin:@:ILNC xachain_0.xmux2to1_t9.xand_0.m_i_0:@:nmos_vtl:@:lmin:@:ILNC xachain_0.xmux2to1_t9.xand_0.m_i_10:@:pmos_vtl:@:lmin:@:ILNC xachain_0.xmux2to1_t9.xand_0.m_i_11:@:pmos_vtl:@:lmin:@:ILNC xachain_0.xmux2to1_t9.xand_0.m_i_1:@:pmos_vtl:@:lmin:@:ILNC xachain_0.xmux2to1_t9.xand_1.m_i_2:@:nmos_vtl:@:lmin:@:ILNC xachain_0.xmux2to1_t9.xand_1.m_i_3:@:nmos_vtl:@:lmin:@:ILNC xachain_0.xmux2to1_t9.xand_1.m_i_0:@:nmos_vtl:@:lmin:@:ILNC xachain_0.xmux2to1_t9.xand_1.m_i_10:@:pmos_vtl:@:lmin:@:ILNC xachain_0.xmux2to1_t9.xand_1.m_i_11:@:pmos_vtl:@:lmin:@:ILNC xachain_0.xmux2to1_t9.xand_1.m_i_1:@:pmos_vtl:@:lmin:@:ILNC xachain_0.xmux2to1_t9.xor_1.m_i_2:@:nmos_vtl:@:lmin:@:ILNC xachain_0.xmux2to1_t9.xor_1.m_i_3:@:nmos_vtl:@:lmin:@:ILNC xachain_0.xmux2to1_t9.xor_1.m_i_0:@:nmos_vtl:@:lmin:@:ILNC xachain_0.xmux2to1_t9.xor_1.m_i_10:@:pmos_vtl:@:lmin:@:ILNC xachain_0.xmux2to1_t9.xor_1.m_i_11:@:pmos_vtl:@:lmin:@:ILNC xachain_0.xmux2to1_t9.xor_1.m_i_1:@:pmos_vtl:@:lmin:@:ILNC xachain_0.xmux2to1_b9.xinv_0.m_i_0:@:nmos_vtl:@:lmin:@:ILNC xachain_0.xmux2to1_b9.xinv_0.m_i_10:@:pmos_vtl:@:lmin:@:ILNC xachain_0.xmux2to1_b9.xand_0.m_i_2:@:nmos_vtl:@:lmin:@:ILNC xachain_0.xmux2to1_b9.xand_0.m_i_3:@:nmos_vtl:@:lmin:@:ILNC xachain_0.xmux2to1_b9.xand_0.m_i_0:@:nmos_vtl:@:lmin:@:ILNC xachain_0.xmux2to1_b9.xand_0.m_i_10:@:pmos_vtl:@:lmin:@:ILNC xachain_0.xmux2to1_b9.xand_0.m_i_11:@:pmos_vtl:@:lmin:@:ILNC xachain_0.xmux2to1_b9.xand_0.m_i_1:@:pmos_vtl:@:lmin:@:ILNC xachain_0.xmux2to1_b9.xand_1.m_i_2:@:nmos_vtl:@:lmin:@:ILNC xachain_0.xmux2to1_b9.xand_1.m_i_3:@:nmos_vtl:@:lmin:@:ILNC xachain_0.xmux2to1_b9.xand_1.m_i_0:@:nmos_vtl:@:lmin:@:ILNC xachain_0.xmux2to1_b9.xand_1.m_i_10:@:pmos_vtl:@:lmin:@:ILNC xachain_0.xmux2to1_b9.xand_1.m_i_11:@:pmos_vtl:@:lmin:@:ILNC xachain_0.xmux2to1_b9.xand_1.m_i_1:@:pmos_vtl:@:lmin:@:ILNC xachain_0.xmux2to1_b9.xor_1.m_i_2:@:nmos_vtl:@:lmin:@:ILNC xachain_0.xmux2to1_b9.xor_1.m_i_3:@:nmos_vtl:@:lmin:@:ILNC xachain_0.xmux2to1_b9.xor_1.m_i_0:@:nmos_vtl:@:lmin:@:ILNC xachain_0.xmux2to1_b9.xor_1.m_i_10:@:pmos_vtl:@:lmin:@:ILNC xachain_0.xmux2to1_b9.xor_1.m_i_11:@:pmos_vtl:@:lmin:@:ILNC xachain_0.xmux2to1_b9.xor_1.m_i_1:@:pmos_vtl:@:lmin:@:ILNC xachain_0.xmux2to1_t10.xinv_0.m_i_0:@:nmos_vtl:@:lmin:@:ILNC xachain_0.xmux2to1_t10.xinv_0.m_i_10:@:pmos_vtl:@:lmin:@:ILNC xachain_0.xmux2to1_t10.xand_0.m_i_2:@:nmos_vtl:@:lmin:@:ILNC xachain_0.xmux2to1_t10.xand_0.m_i_3:@:nmos_vtl:@:lmin:@:ILNC xachain_0.xmux2to1_t10.xand_0.m_i_0:@:nmos_vtl:@:lmin:@:ILNC xachain_0.xmux2to1_t10.xand_0.m_i_10:@:pmos_vtl:@:lmin:@:ILNC xachain_0.xmux2to1_t10.xand_0.m_i_11:@:pmos_vtl:@:lmin:@:ILNC xachain_0.xmux2to1_t10.xand_0.m_i_1:@:pmos_vtl:@:lmin:@:ILNC xachain_0.xmux2to1_t10.xand_1.m_i_2:@:nmos_vtl:@:lmin:@:ILNC xachain_0.xmux2to1_t10.xand_1.m_i_3:@:nmos_vtl:@:lmin:@:ILNC xachain_0.xmux2to1_t10.xand_1.m_i_0:@:nmos_vtl:@:lmin:@:ILNC xachain_0.xmux2to1_t10.xand_1.m_i_10:@:pmos_vtl:@:lmin:@:ILNC xachain_0.xmux2to1_t10.xand_1.m_i_11:@:pmos_vtl:@:lmin:@:ILNC xachain_0.xmux2to1_t10.xand_1.m_i_1:@:pmos_vtl:@:lmin:@:ILNC xachain_0.xmux2to1_t10.xor_1.m_i_2:@:nmos_vtl:@:lmin:@:ILNC xachain_0.xmux2to1_t10.xor_1.m_i_3:@:nmos_vtl:@:lmin:@:ILNC xachain_0.xmux2to1_t10.xor_1.m_i_0:@:nmos_vtl:@:lmin:@:ILNC xachain_0.xmux2to1_t10.xor_1.m_i_10:@:pmos_vtl:@:lmin:@:ILNC xachain_0.xmux2to1_t10.xor_1.m_i_11:@:pmos_vtl:@:lmin:@:ILNC xachain_0.xmux2to1_t10.xor_1.m_i_1:@:pmos_vtl:@:lmin:@:ILNC xachain_0.xmux2to1_b10.xinv_0.m_i_0:@:nmos_vtl:@:lmin:@:ILNC xachain_0.xmux2to1_b10.xinv_0.m_i_10:@:pmos_vtl:@:lmin:@:ILNC xachain_0.xmux2to1_b10.xand_0.m_i_2:@:nmos_vtl:@:lmin:@:ILNC xachain_0.xmux2to1_b10.xand_0.m_i_3:@:nmos_vtl:@:lmin:@:ILNC xachain_0.xmux2to1_b10.xand_0.m_i_0:@:nmos_vtl:@:lmin:@:ILNC xachain_0.xmux2to1_b10.xand_0.m_i_10:@:pmos_vtl:@:lmin:@:ILNC xachain_0.xmux2to1_b10.xand_0.m_i_11:@:pmos_vtl:@:lmin:@:ILNC xachain_0.xmux2to1_b10.xand_0.m_i_1:@:pmos_vtl:@:lmin:@:ILNC xachain_0.xmux2to1_b10.xand_1.m_i_2:@:nmos_vtl:@:lmin:@:ILNC xachain_0.xmux2to1_b10.xand_1.m_i_3:@:nmos_vtl:@:lmin:@:ILNC xachain_0.xmux2to1_b10.xand_1.m_i_0:@:nmos_vtl:@:lmin:@:ILNC xachain_0.xmux2to1_b10.xand_1.m_i_10:@:pmos_vtl:@:lmin:@:ILNC xachain_0.xmux2to1_b10.xand_1.m_i_11:@:pmos_vtl:@:lmin:@:ILNC xachain_0.xmux2to1_b10.xand_1.m_i_1:@:pmos_vtl:@:lmin:@:ILNC xachain_0.xmux2to1_b10.xor_1.m_i_2:@:nmos_vtl:@:lmin:@:ILNC xachain_0.xmux2to1_b10.xor_1.m_i_3:@:nmos_vtl:@:lmin:@:ILNC xachain_0.xmux2to1_b10.xor_1.m_i_0:@:nmos_vtl:@:lmin:@:ILNC xachain_0.xmux2to1_b10.xor_1.m_i_10:@:pmos_vtl:@:lmin:@:ILNC xachain_0.xmux2to1_b10.xor_1.m_i_11:@:pmos_vtl:@:lmin:@:ILNC xachain_0.xmux2to1_b10.xor_1.m_i_1:@:pmos_vtl:@:lmin:@:ILNC xachain_0.xmux2to1_t11.xinv_0.m_i_0:@:nmos_vtl:@:lmin:@:ILNC xachain_0.xmux2to1_t11.xinv_0.m_i_10:@:pmos_vtl:@:lmin:@:ILNC xachain_0.xmux2to1_t11.xand_0.m_i_2:@:nmos_vtl:@:lmin:@:ILNC xachain_0.xmux2to1_t11.xand_0.m_i_3:@:nmos_vtl:@:lmin:@:ILNC xachain_0.xmux2to1_t11.xand_0.m_i_0:@:nmos_vtl:@:lmin:@:ILNC xachain_0.xmux2to1_t11.xand_0.m_i_10:@:pmos_vtl:@:lmin:@:ILNC xachain_0.xmux2to1_t11.xand_0.m_i_11:@:pmos_vtl:@:lmin:@:ILNC xachain_0.xmux2to1_t11.xand_0.m_i_1:@:pmos_vtl:@:lmin:@:ILNC xachain_0.xmux2to1_t11.xand_1.m_i_2:@:nmos_vtl:@:lmin:@:ILNC xachain_0.xmux2to1_t11.xand_1.m_i_3:@:nmos_vtl:@:lmin:@:ILNC xachain_0.xmux2to1_t11.xand_1.m_i_0:@:nmos_vtl:@:lmin:@:ILNC xachain_0.xmux2to1_t11.xand_1.m_i_10:@:pmos_vtl:@:lmin:@:ILNC xachain_0.xmux2to1_t11.xand_1.m_i_11:@:pmos_vtl:@:lmin:@:ILNC xachain_0.xmux2to1_t11.xand_1.m_i_1:@:pmos_vtl:@:lmin:@:ILNC xachain_0.xmux2to1_t11.xor_1.m_i_2:@:nmos_vtl:@:lmin:@:ILNC xachain_0.xmux2to1_t11.xor_1.m_i_3:@:nmos_vtl:@:lmin:@:ILNC xachain_0.xmux2to1_t11.xor_1.m_i_0:@:nmos_vtl:@:lmin:@:ILNC xachain_0.xmux2to1_t11.xor_1.m_i_10:@:pmos_vtl:@:lmin:@:ILNC xachain_0.xmux2to1_t11.xor_1.m_i_11:@:pmos_vtl:@:lmin:@:ILNC xachain_0.xmux2to1_t11.xor_1.m_i_1:@:pmos_vtl:@:lmin:@:ILNC xachain_0.xmux2to1_b11.xinv_0.m_i_0:@:nmos_vtl:@:lmin:@:ILNC xachain_0.xmux2to1_b11.xinv_0.m_i_10:@:pmos_vtl:@:lmin:@:ILNC xachain_0.xmux2to1_b11.xand_0.m_i_2:@:nmos_vtl:@:lmin:@:ILNC xachain_0.xmux2to1_b11.xand_0.m_i_3:@:nmos_vtl:@:lmin:@:ILNC xachain_0.xmux2to1_b11.xand_0.m_i_0:@:nmos_vtl:@:lmin:@:ILNC xachain_0.xmux2to1_b11.xand_0.m_i_10:@:pmos_vtl:@:lmin:@:ILNC xachain_0.xmux2to1_b11.xand_0.m_i_11:@:pmos_vtl:@:lmin:@:ILNC xachain_0.xmux2to1_b11.xand_0.m_i_1:@:pmos_vtl:@:lmin:@:ILNC xachain_0.xmux2to1_b11.xand_1.m_i_2:@:nmos_vtl:@:lmin:@:ILNC xachain_0.xmux2to1_b11.xand_1.m_i_3:@:nmos_vtl:@:lmin:@:ILNC xachain_0.xmux2to1_b11.xand_1.m_i_0:@:nmos_vtl:@:lmin:@:ILNC xachain_0.xmux2to1_b11.xand_1.m_i_10:@:pmos_vtl:@:lmin:@:ILNC xachain_0.xmux2to1_b11.xand_1.m_i_11:@:pmos_vtl:@:lmin:@:ILNC xachain_0.xmux2to1_b11.xand_1.m_i_1:@:pmos_vtl:@:lmin:@:ILNC xachain_0.xmux2to1_b11.xor_1.m_i_2:@:nmos_vtl:@:lmin:@:ILNC xachain_0.xmux2to1_b11.xor_1.m_i_3:@:nmos_vtl:@:lmin:@:ILNC xachain_0.xmux2to1_b11.xor_1.m_i_0:@:nmos_vtl:@:lmin:@:ILNC xachain_0.xmux2to1_b11.xor_1.m_i_10:@:pmos_vtl:@:lmin:@:ILNC xachain_0.xmux2to1_b11.xor_1.m_i_11:@:pmos_vtl:@:lmin:@:ILNC xachain_0.xmux2to1_b11.xor_1.m_i_1:@:pmos_vtl:@:lmin:@:ILNC xachain_0.xmux2to1_t12.xinv_0.m_i_0:@:nmos_vtl:@:lmin:@:ILNC xachain_0.xmux2to1_t12.xinv_0.m_i_10:@:pmos_vtl:@:lmin:@:ILNC xachain_0.xmux2to1_t12.xand_0.m_i_2:@:nmos_vtl:@:lmin:@:ILNC xachain_0.xmux2to1_t12.xand_0.m_i_3:@:nmos_vtl:@:lmin:@:ILNC xachain_0.xmux2to1_t12.xand_0.m_i_0:@:nmos_vtl:@:lmin:@:ILNC xachain_0.xmux2to1_t12.xand_0.m_i_10:@:pmos_vtl:@:lmin:@:ILNC xachain_0.xmux2to1_t12.xand_0.m_i_11:@:pmos_vtl:@:lmin:@:ILNC xachain_0.xmux2to1_t12.xand_0.m_i_1:@:pmos_vtl:@:lmin:@:ILNC xachain_0.xmux2to1_t12.xand_1.m_i_2:@:nmos_vtl:@:lmin:@:ILNC xachain_0.xmux2to1_t12.xand_1.m_i_3:@:nmos_vtl:@:lmin:@:ILNC xachain_0.xmux2to1_t12.xand_1.m_i_0:@:nmos_vtl:@:lmin:@:ILNC xachain_0.xmux2to1_t12.xand_1.m_i_10:@:pmos_vtl:@:lmin:@:ILNC xachain_0.xmux2to1_t12.xand_1.m_i_11:@:pmos_vtl:@:lmin:@:ILNC xachain_0.xmux2to1_t12.xand_1.m_i_1:@:pmos_vtl:@:lmin:@:ILNC xachain_0.xmux2to1_t12.xor_1.m_i_2:@:nmos_vtl:@:lmin:@:ILNC xachain_0.xmux2to1_t12.xor_1.m_i_3:@:nmos_vtl:@:lmin:@:ILNC xachain_0.xmux2to1_t12.xor_1.m_i_0:@:nmos_vtl:@:lmin:@:ILNC xachain_0.xmux2to1_t12.xor_1.m_i_10:@:pmos_vtl:@:lmin:@:ILNC xachain_0.xmux2to1_t12.xor_1.m_i_11:@:pmos_vtl:@:lmin:@:ILNC xachain_0.xmux2to1_t12.xor_1.m_i_1:@:pmos_vtl:@:lmin:@:ILNC xachain_0.xmux2to1_b12.xinv_0.m_i_0:@:nmos_vtl:@:lmin:@:ILNC xachain_0.xmux2to1_b12.xinv_0.m_i_10:@:pmos_vtl:@:lmin:@:ILNC xachain_0.xmux2to1_b12.xand_0.m_i_2:@:nmos_vtl:@:lmin:@:ILNC xachain_0.xmux2to1_b12.xand_0.m_i_3:@:nmos_vtl:@:lmin:@:ILNC xachain_0.xmux2to1_b12.xand_0.m_i_0:@:nmos_vtl:@:lmin:@:ILNC xachain_0.xmux2to1_b12.xand_0.m_i_10:@:pmos_vtl:@:lmin:@:ILNC xachain_0.xmux2to1_b12.xand_0.m_i_11:@:pmos_vtl:@:lmin:@:ILNC xachain_0.xmux2to1_b12.xand_0.m_i_1:@:pmos_vtl:@:lmin:@:ILNC xachain_0.xmux2to1_b12.xand_1.m_i_2:@:nmos_vtl:@:lmin:@:ILNC xachain_0.xmux2to1_b12.xand_1.m_i_3:@:nmos_vtl:@:lmin:@:ILNC xachain_0.xmux2to1_b12.xand_1.m_i_0:@:nmos_vtl:@:lmin:@:ILNC xachain_0.xmux2to1_b12.xand_1.m_i_10:@:pmos_vtl:@:lmin:@:ILNC xachain_0.xmux2to1_b12.xand_1.m_i_11:@:pmos_vtl:@:lmin:@:ILNC xachain_0.xmux2to1_b12.xand_1.m_i_1:@:pmos_vtl:@:lmin:@:ILNC xachain_0.xmux2to1_b12.xor_1.m_i_2:@:nmos_vtl:@:lmin:@:ILNC xachain_0.xmux2to1_b12.xor_1.m_i_3:@:nmos_vtl:@:lmin:@:ILNC xachain_0.xmux2to1_b12.xor_1.m_i_0:@:nmos_vtl:@:lmin:@:ILNC xachain_0.xmux2to1_b12.xor_1.m_i_10:@:pmos_vtl:@:lmin:@:ILNC xachain_0.xmux2to1_b12.xor_1.m_i_11:@:pmos_vtl:@:lmin:@:ILNC xachain_0.xmux2to1_b12.xor_1.m_i_1:@:pmos_vtl:@:lmin:@:ILNC xachain_0.xmux2to1_t13.xinv_0.m_i_0:@:nmos_vtl:@:lmin:@:ILNC xachain_0.xmux2to1_t13.xinv_0.m_i_10:@:pmos_vtl:@:lmin:@:ILNC xachain_0.xmux2to1_t13.xand_0.m_i_2:@:nmos_vtl:@:lmin:@:ILNC xachain_0.xmux2to1_t13.xand_0.m_i_3:@:nmos_vtl:@:lmin:@:ILNC xachain_0.xmux2to1_t13.xand_0.m_i_0:@:nmos_vtl:@:lmin:@:ILNC xachain_0.xmux2to1_t13.xand_0.m_i_10:@:pmos_vtl:@:lmin:@:ILNC xachain_0.xmux2to1_t13.xand_0.m_i_11:@:pmos_vtl:@:lmin:@:ILNC xachain_0.xmux2to1_t13.xand_0.m_i_1:@:pmos_vtl:@:lmin:@:ILNC xachain_0.xmux2to1_t13.xand_1.m_i_2:@:nmos_vtl:@:lmin:@:ILNC xachain_0.xmux2to1_t13.xand_1.m_i_3:@:nmos_vtl:@:lmin:@:ILNC xachain_0.xmux2to1_t13.xand_1.m_i_0:@:nmos_vtl:@:lmin:@:ILNC xachain_0.xmux2to1_t13.xand_1.m_i_10:@:pmos_vtl:@:lmin:@:ILNC xachain_0.xmux2to1_t13.xand_1.m_i_11:@:pmos_vtl:@:lmin:@:ILNC xachain_0.xmux2to1_t13.xand_1.m_i_1:@:pmos_vtl:@:lmin:@:ILNC xachain_0.xmux2to1_t13.xor_1.m_i_2:@:nmos_vtl:@:lmin:@:ILNC xachain_0.xmux2to1_t13.xor_1.m_i_3:@:nmos_vtl:@:lmin:@:ILNC xachain_0.xmux2to1_t13.xor_1.m_i_0:@:nmos_vtl:@:lmin:@:ILNC xachain_0.xmux2to1_t13.xor_1.m_i_10:@:pmos_vtl:@:lmin:@:ILNC xachain_0.xmux2to1_t13.xor_1.m_i_11:@:pmos_vtl:@:lmin:@:ILNC xachain_0.xmux2to1_t13.xor_1.m_i_1:@:pmos_vtl:@:lmin:@:ILNC xachain_0.xmux2to1_b13.xinv_0.m_i_0:@:nmos_vtl:@:lmin:@:ILNC xachain_0.xmux2to1_b13.xinv_0.m_i_10:@:pmos_vtl:@:lmin:@:ILNC xachain_0.xmux2to1_b13.xand_0.m_i_2:@:nmos_vtl:@:lmin:@:ILNC xachain_0.xmux2to1_b13.xand_0.m_i_3:@:nmos_vtl:@:lmin:@:ILNC xachain_0.xmux2to1_b13.xand_0.m_i_0:@:nmos_vtl:@:lmin:@:ILNC xachain_0.xmux2to1_b13.xand_0.m_i_10:@:pmos_vtl:@:lmin:@:ILNC xachain_0.xmux2to1_b13.xand_0.m_i_11:@:pmos_vtl:@:lmin:@:ILNC xachain_0.xmux2to1_b13.xand_0.m_i_1:@:pmos_vtl:@:lmin:@:ILNC xachain_0.xmux2to1_b13.xand_1.m_i_2:@:nmos_vtl:@:lmin:@:ILNC xachain_0.xmux2to1_b13.xand_1.m_i_3:@:nmos_vtl:@:lmin:@:ILNC xachain_0.xmux2to1_b13.xand_1.m_i_0:@:nmos_vtl:@:lmin:@:ILNC xachain_0.xmux2to1_b13.xand_1.m_i_10:@:pmos_vtl:@:lmin:@:ILNC xachain_0.xmux2to1_b13.xand_1.m_i_11:@:pmos_vtl:@:lmin:@:ILNC xachain_0.xmux2to1_b13.xand_1.m_i_1:@:pmos_vtl:@:lmin:@:ILNC xachain_0.xmux2to1_b13.xor_1.m_i_2:@:nmos_vtl:@:lmin:@:ILNC xachain_0.xmux2to1_b13.xor_1.m_i_3:@:nmos_vtl:@:lmin:@:ILNC xachain_0.xmux2to1_b13.xor_1.m_i_0:@:nmos_vtl:@:lmin:@:ILNC xachain_0.xmux2to1_b13.xor_1.m_i_10:@:pmos_vtl:@:lmin:@:ILNC xachain_0.xmux2to1_b13.xor_1.m_i_11:@:pmos_vtl:@:lmin:@:ILNC xachain_0.xmux2to1_b13.xor_1.m_i_1:@:pmos_vtl:@:lmin:@:ILNC xachain_0.xmux2to1_t14.xinv_0.m_i_0:@:nmos_vtl:@:lmin:@:ILNC xachain_0.xmux2to1_t14.xinv_0.m_i_10:@:pmos_vtl:@:lmin:@:ILNC xachain_0.xmux2to1_t14.xand_0.m_i_2:@:nmos_vtl:@:lmin:@:ILNC xachain_0.xmux2to1_t14.xand_0.m_i_3:@:nmos_vtl:@:lmin:@:ILNC xachain_0.xmux2to1_t14.xand_0.m_i_0:@:nmos_vtl:@:lmin:@:ILNC xachain_0.xmux2to1_t14.xand_0.m_i_10:@:pmos_vtl:@:lmin:@:ILNC xachain_0.xmux2to1_t14.xand_0.m_i_11:@:pmos_vtl:@:lmin:@:ILNC xachain_0.xmux2to1_t14.xand_0.m_i_1:@:pmos_vtl:@:lmin:@:ILNC xachain_0.xmux2to1_t14.xand_1.m_i_2:@:nmos_vtl:@:lmin:@:ILNC xachain_0.xmux2to1_t14.xand_1.m_i_3:@:nmos_vtl:@:lmin:@:ILNC xachain_0.xmux2to1_t14.xand_1.m_i_0:@:nmos_vtl:@:lmin:@:ILNC xachain_0.xmux2to1_t14.xand_1.m_i_10:@:pmos_vtl:@:lmin:@:ILNC xachain_0.xmux2to1_t14.xand_1.m_i_11:@:pmos_vtl:@:lmin:@:ILNC xachain_0.xmux2to1_t14.xand_1.m_i_1:@:pmos_vtl:@:lmin:@:ILNC xachain_0.xmux2to1_t14.xor_1.m_i_2:@:nmos_vtl:@:lmin:@:ILNC xachain_0.xmux2to1_t14.xor_1.m_i_3:@:nmos_vtl:@:lmin:@:ILNC xachain_0.xmux2to1_t14.xor_1.m_i_0:@:nmos_vtl:@:lmin:@:ILNC xachain_0.xmux2to1_t14.xor_1.m_i_10:@:pmos_vtl:@:lmin:@:ILNC xachain_0.xmux2to1_t14.xor_1.m_i_11:@:pmos_vtl:@:lmin:@:ILNC xachain_0.xmux2to1_t14.xor_1.m_i_1:@:pmos_vtl:@:lmin:@:ILNC xachain_0.xmux2to1_b14.xinv_0.m_i_0:@:nmos_vtl:@:lmin:@:ILNC xachain_0.xmux2to1_b14.xinv_0.m_i_10:@:pmos_vtl:@:lmin:@:ILNC xachain_0.xmux2to1_b14.xand_0.m_i_2:@:nmos_vtl:@:lmin:@:ILNC xachain_0.xmux2to1_b14.xand_0.m_i_3:@:nmos_vtl:@:lmin:@:ILNC xachain_0.xmux2to1_b14.xand_0.m_i_0:@:nmos_vtl:@:lmin:@:ILNC xachain_0.xmux2to1_b14.xand_0.m_i_10:@:pmos_vtl:@:lmin:@:ILNC xachain_0.xmux2to1_b14.xand_0.m_i_11:@:pmos_vtl:@:lmin:@:ILNC xachain_0.xmux2to1_b14.xand_0.m_i_1:@:pmos_vtl:@:lmin:@:ILNC xachain_0.xmux2to1_b14.xand_1.m_i_2:@:nmos_vtl:@:lmin:@:ILNC xachain_0.xmux2to1_b14.xand_1.m_i_3:@:nmos_vtl:@:lmin:@:ILNC xachain_0.xmux2to1_b14.xand_1.m_i_0:@:nmos_vtl:@:lmin:@:ILNC xachain_0.xmux2to1_b14.xand_1.m_i_10:@:pmos_vtl:@:lmin:@:ILNC xachain_0.xmux2to1_b14.xand_1.m_i_11:@:pmos_vtl:@:lmin:@:ILNC xachain_0.xmux2to1_b14.xand_1.m_i_1:@:pmos_vtl:@:lmin:@:ILNC xachain_0.xmux2to1_b14.xor_1.m_i_2:@:nmos_vtl:@:lmin:@:ILNC xachain_0.xmux2to1_b14.xor_1.m_i_3:@:nmos_vtl:@:lmin:@:ILNC xachain_0.xmux2to1_b14.xor_1.m_i_0:@:nmos_vtl:@:lmin:@:ILNC xachain_0.xmux2to1_b14.xor_1.m_i_10:@:pmos_vtl:@:lmin:@:ILNC xachain_0.xmux2to1_b14.xor_1.m_i_11:@:pmos_vtl:@:lmin:@:ILNC xachain_0.xmux2to1_b14.xor_1.m_i_1:@:pmos_vtl:@:lmin:@:ILNC xachain_0.xmux2to1_t15.xinv_0.m_i_0:@:nmos_vtl:@:lmin:@:ILNC xachain_0.xmux2to1_t15.xinv_0.m_i_10:@:pmos_vtl:@:lmin:@:ILNC xachain_0.xmux2to1_t15.xand_0.m_i_2:@:nmos_vtl:@:lmin:@:ILNC xachain_0.xmux2to1_t15.xand_0.m_i_3:@:nmos_vtl:@:lmin:@:ILNC xachain_0.xmux2to1_t15.xand_0.m_i_0:@:nmos_vtl:@:lmin:@:ILNC xachain_0.xmux2to1_t15.xand_0.m_i_10:@:pmos_vtl:@:lmin:@:ILNC xachain_0.xmux2to1_t15.xand_0.m_i_11:@:pmos_vtl:@:lmin:@:ILNC xachain_0.xmux2to1_t15.xand_0.m_i_1:@:pmos_vtl:@:lmin:@:ILNC xachain_0.xmux2to1_t15.xand_1.m_i_2:@:nmos_vtl:@:lmin:@:ILNC xachain_0.xmux2to1_t15.xand_1.m_i_3:@:nmos_vtl:@:lmin:@:ILNC xachain_0.xmux2to1_t15.xand_1.m_i_0:@:nmos_vtl:@:lmin:@:ILNC xachain_0.xmux2to1_t15.xand_1.m_i_10:@:pmos_vtl:@:lmin:@:ILNC xachain_0.xmux2to1_t15.xand_1.m_i_11:@:pmos_vtl:@:lmin:@:ILNC xachain_0.xmux2to1_t15.xand_1.m_i_1:@:pmos_vtl:@:lmin:@:ILNC xachain_0.xmux2to1_t15.xor_1.m_i_2:@:nmos_vtl:@:lmin:@:ILNC xachain_0.xmux2to1_t15.xor_1.m_i_3:@:nmos_vtl:@:lmin:@:ILNC xachain_0.xmux2to1_t15.xor_1.m_i_0:@:nmos_vtl:@:lmin:@:ILNC xachain_0.xmux2to1_t15.xor_1.m_i_10:@:pmos_vtl:@:lmin:@:ILNC xachain_0.xmux2to1_t15.xor_1.m_i_11:@:pmos_vtl:@:lmin:@:ILNC xachain_0.xmux2to1_t15.xor_1.m_i_1:@:pmos_vtl:@:lmin:@:ILNC xachain_0.xmux2to1_b15.xinv_0.m_i_0:@:nmos_vtl:@:lmin:@:ILNC xachain_0.xmux2to1_b15.xinv_0.m_i_10:@:pmos_vtl:@:lmin:@:ILNC xachain_0.xmux2to1_b15.xand_0.m_i_2:@:nmos_vtl:@:lmin:@:ILNC xachain_0.xmux2to1_b15.xand_0.m_i_3:@:nmos_vtl:@:lmin:@:ILNC xachain_0.xmux2to1_b15.xand_0.m_i_0:@:nmos_vtl:@:lmin:@:ILNC xachain_0.xmux2to1_b15.xand_0.m_i_10:@:pmos_vtl:@:lmin:@:ILNC xachain_0.xmux2to1_b15.xand_0.m_i_11:@:pmos_vtl:@:lmin:@:ILNC xachain_0.xmux2to1_b15.xand_0.m_i_1:@:pmos_vtl:@:lmin:@:ILNC xachain_0.xmux2to1_b15.xand_1.m_i_2:@:nmos_vtl:@:lmin:@:ILNC xachain_0.xmux2to1_b15.xand_1.m_i_3:@:nmos_vtl:@:lmin:@:ILNC xachain_0.xmux2to1_b15.xand_1.m_i_0:@:nmos_vtl:@:lmin:@:ILNC xachain_0.xmux2to1_b15.xand_1.m_i_10:@:pmos_vtl:@:lmin:@:ILNC xachain_0.xmux2to1_b15.xand_1.m_i_11:@:pmos_vtl:@:lmin:@:ILNC xachain_0.xmux2to1_b15.xand_1.m_i_1:@:pmos_vtl:@:lmin:@:ILNC xachain_0.xmux2to1_b15.xor_1.m_i_2:@:nmos_vtl:@:lmin:@:ILNC xachain_0.xmux2to1_b15.xor_1.m_i_3:@:nmos_vtl:@:lmin:@:ILNC xachain_0.xmux2to1_b15.xor_1.m_i_0:@:nmos_vtl:@:lmin:@:ILNC xachain_0.xmux2to1_b15.xor_1.m_i_10:@:pmos_vtl:@:lmin:@:ILNC xachain_0.xmux2to1_b15.xor_1.m_i_11:@:pmos_vtl:@:lmin:@:ILNC xachain_0.xmux2to1_b15.xor_1.m_i_1:@:pmos_vtl:@:lmin:@:ILNC xachain_1.xmux2to1_t0.xinv_0.m_i_0:@:nmos_vtl:@:lmin:@:ILNC xachain_1.xmux2to1_t0.xinv_0.m_i_10:@:pmos_vtl:@:lmin:@:ILNC xachain_1.xmux2to1_t0.xand_0.m_i_2:@:nmos_vtl:@:lmin:@:ILNC xachain_1.xmux2to1_t0.xand_0.m_i_3:@:nmos_vtl:@:lmin:@:ILNC xachain_1.xmux2to1_t0.xand_0.m_i_0:@:nmos_vtl:@:lmin:@:ILNC xachain_1.xmux2to1_t0.xand_0.m_i_10:@:pmos_vtl:@:lmin:@:ILNC xachain_1.xmux2to1_t0.xand_0.m_i_11:@:pmos_vtl:@:lmin:@:ILNC xachain_1.xmux2to1_t0.xand_0.m_i_1:@:pmos_vtl:@:lmin:@:ILNC xachain_1.xmux2to1_t0.xand_1.m_i_2:@:nmos_vtl:@:lmin:@:ILNC xachain_1.xmux2to1_t0.xand_1.m_i_3:@:nmos_vtl:@:lmin:@:ILNC xachain_1.xmux2to1_t0.xand_1.m_i_0:@:nmos_vtl:@:lmin:@:ILNC xachain_1.xmux2to1_t0.xand_1.m_i_10:@:pmos_vtl:@:lmin:@:ILNC xachain_1.xmux2to1_t0.xand_1.m_i_11:@:pmos_vtl:@:lmin:@:ILNC xachain_1.xmux2to1_t0.xand_1.m_i_1:@:pmos_vtl:@:lmin:@:ILNC xachain_1.xmux2to1_t0.xor_1.m_i_2:@:nmos_vtl:@:lmin:@:ILNC xachain_1.xmux2to1_t0.xor_1.m_i_3:@:nmos_vtl:@:lmin:@:ILNC xachain_1.xmux2to1_t0.xor_1.m_i_0:@:nmos_vtl:@:lmin:@:ILNC xachain_1.xmux2to1_t0.xor_1.m_i_10:@:pmos_vtl:@:lmin:@:ILNC xachain_1.xmux2to1_t0.xor_1.m_i_11:@:pmos_vtl:@:lmin:@:ILNC xachain_1.xmux2to1_t0.xor_1.m_i_1:@:pmos_vtl:@:lmin:@:ILNC xachain_1.xmux2to1_b0.xinv_0.m_i_0:@:nmos_vtl:@:lmin:@:ILNC xachain_1.xmux2to1_b0.xinv_0.m_i_10:@:pmos_vtl:@:lmin:@:ILNC xachain_1.xmux2to1_b0.xand_0.m_i_2:@:nmos_vtl:@:lmin:@:ILNC xachain_1.xmux2to1_b0.xand_0.m_i_3:@:nmos_vtl:@:lmin:@:ILNC xachain_1.xmux2to1_b0.xand_0.m_i_0:@:nmos_vtl:@:lmin:@:ILNC xachain_1.xmux2to1_b0.xand_0.m_i_10:@:pmos_vtl:@:lmin:@:ILNC xachain_1.xmux2to1_b0.xand_0.m_i_11:@:pmos_vtl:@:lmin:@:ILNC xachain_1.xmux2to1_b0.xand_0.m_i_1:@:pmos_vtl:@:lmin:@:ILNC xachain_1.xmux2to1_b0.xand_1.m_i_2:@:nmos_vtl:@:lmin:@:ILNC xachain_1.xmux2to1_b0.xand_1.m_i_3:@:nmos_vtl:@:lmin:@:ILNC xachain_1.xmux2to1_b0.xand_1.m_i_0:@:nmos_vtl:@:lmin:@:ILNC xachain_1.xmux2to1_b0.xand_1.m_i_10:@:pmos_vtl:@:lmin:@:ILNC xachain_1.xmux2to1_b0.xand_1.m_i_11:@:pmos_vtl:@:lmin:@:ILNC xachain_1.xmux2to1_b0.xand_1.m_i_1:@:pmos_vtl:@:lmin:@:ILNC xachain_1.xmux2to1_b0.xor_1.m_i_2:@:nmos_vtl:@:lmin:@:ILNC xachain_1.xmux2to1_b0.xor_1.m_i_3:@:nmos_vtl:@:lmin:@:ILNC xachain_1.xmux2to1_b0.xor_1.m_i_0:@:nmos_vtl:@:lmin:@:ILNC xachain_1.xmux2to1_b0.xor_1.m_i_10:@:pmos_vtl:@:lmin:@:ILNC xachain_1.xmux2to1_b0.xor_1.m_i_11:@:pmos_vtl:@:lmin:@:ILNC xachain_1.xmux2to1_b0.xor_1.m_i_1:@:pmos_vtl:@:lmin:@:ILNC xachain_1.xmux2to1_t1.xinv_0.m_i_0:@:nmos_vtl:@:lmin:@:ILNC xachain_1.xmux2to1_t1.xinv_0.m_i_10:@:pmos_vtl:@:lmin:@:ILNC xachain_1.xmux2to1_t1.xand_0.m_i_2:@:nmos_vtl:@:lmin:@:ILNC xachain_1.xmux2to1_t1.xand_0.m_i_3:@:nmos_vtl:@:lmin:@:ILNC xachain_1.xmux2to1_t1.xand_0.m_i_0:@:nmos_vtl:@:lmin:@:ILNC xachain_1.xmux2to1_t1.xand_0.m_i_10:@:pmos_vtl:@:lmin:@:ILNC xachain_1.xmux2to1_t1.xand_0.m_i_11:@:pmos_vtl:@:lmin:@:ILNC xachain_1.xmux2to1_t1.xand_0.m_i_1:@:pmos_vtl:@:lmin:@:ILNC xachain_1.xmux2to1_t1.xand_1.m_i_2:@:nmos_vtl:@:lmin:@:ILNC xachain_1.xmux2to1_t1.xand_1.m_i_3:@:nmos_vtl:@:lmin:@:ILNC xachain_1.xmux2to1_t1.xand_1.m_i_0:@:nmos_vtl:@:lmin:@:ILNC xachain_1.xmux2to1_t1.xand_1.m_i_10:@:pmos_vtl:@:lmin:@:ILNC xachain_1.xmux2to1_t1.xand_1.m_i_11:@:pmos_vtl:@:lmin:@:ILNC xachain_1.xmux2to1_t1.xand_1.m_i_1:@:pmos_vtl:@:lmin:@:ILNC xachain_1.xmux2to1_t1.xor_1.m_i_2:@:nmos_vtl:@:lmin:@:ILNC xachain_1.xmux2to1_t1.xor_1.m_i_3:@:nmos_vtl:@:lmin:@:ILNC xachain_1.xmux2to1_t1.xor_1.m_i_0:@:nmos_vtl:@:lmin:@:ILNC xachain_1.xmux2to1_t1.xor_1.m_i_10:@:pmos_vtl:@:lmin:@:ILNC xachain_1.xmux2to1_t1.xor_1.m_i_11:@:pmos_vtl:@:lmin:@:ILNC xachain_1.xmux2to1_t1.xor_1.m_i_1:@:pmos_vtl:@:lmin:@:ILNC xachain_1.xmux2to1_b1.xinv_0.m_i_0:@:nmos_vtl:@:lmin:@:ILNC xachain_1.xmux2to1_b1.xinv_0.m_i_10:@:pmos_vtl:@:lmin:@:ILNC xachain_1.xmux2to1_b1.xand_0.m_i_2:@:nmos_vtl:@:lmin:@:ILNC xachain_1.xmux2to1_b1.xand_0.m_i_3:@:nmos_vtl:@:lmin:@:ILNC xachain_1.xmux2to1_b1.xand_0.m_i_0:@:nmos_vtl:@:lmin:@:ILNC xachain_1.xmux2to1_b1.xand_0.m_i_10:@:pmos_vtl:@:lmin:@:ILNC xachain_1.xmux2to1_b1.xand_0.m_i_11:@:pmos_vtl:@:lmin:@:ILNC xachain_1.xmux2to1_b1.xand_0.m_i_1:@:pmos_vtl:@:lmin:@:ILNC xachain_1.xmux2to1_b1.xand_1.m_i_2:@:nmos_vtl:@:lmin:@:ILNC xachain_1.xmux2to1_b1.xand_1.m_i_3:@:nmos_vtl:@:lmin:@:ILNC xachain_1.xmux2to1_b1.xand_1.m_i_0:@:nmos_vtl:@:lmin:@:ILNC xachain_1.xmux2to1_b1.xand_1.m_i_10:@:pmos_vtl:@:lmin:@:ILNC xachain_1.xmux2to1_b1.xand_1.m_i_11:@:pmos_vtl:@:lmin:@:ILNC xachain_1.xmux2to1_b1.xand_1.m_i_1:@:pmos_vtl:@:lmin:@:ILNC xachain_1.xmux2to1_b1.xor_1.m_i_2:@:nmos_vtl:@:lmin:@:ILNC xachain_1.xmux2to1_b1.xor_1.m_i_3:@:nmos_vtl:@:lmin:@:ILNC xachain_1.xmux2to1_b1.xor_1.m_i_0:@:nmos_vtl:@:lmin:@:ILNC xachain_1.xmux2to1_b1.xor_1.m_i_10:@:pmos_vtl:@:lmin:@:ILNC xachain_1.xmux2to1_b1.xor_1.m_i_11:@:pmos_vtl:@:lmin:@:ILNC xachain_1.xmux2to1_b1.xor_1.m_i_1:@:pmos_vtl:@:lmin:@:ILNC xachain_1.xmux2to1_t2.xinv_0.m_i_0:@:nmos_vtl:@:lmin:@:ILNC xachain_1.xmux2to1_t2.xinv_0.m_i_10:@:pmos_vtl:@:lmin:@:ILNC xachain_1.xmux2to1_t2.xand_0.m_i_2:@:nmos_vtl:@:lmin:@:ILNC xachain_1.xmux2to1_t2.xand_0.m_i_3:@:nmos_vtl:@:lmin:@:ILNC xachain_1.xmux2to1_t2.xand_0.m_i_0:@:nmos_vtl:@:lmin:@:ILNC xachain_1.xmux2to1_t2.xand_0.m_i_10:@:pmos_vtl:@:lmin:@:ILNC xachain_1.xmux2to1_t2.xand_0.m_i_11:@:pmos_vtl:@:lmin:@:ILNC xachain_1.xmux2to1_t2.xand_0.m_i_1:@:pmos_vtl:@:lmin:@:ILNC xachain_1.xmux2to1_t2.xand_1.m_i_2:@:nmos_vtl:@:lmin:@:ILNC xachain_1.xmux2to1_t2.xand_1.m_i_3:@:nmos_vtl:@:lmin:@:ILNC xachain_1.xmux2to1_t2.xand_1.m_i_0:@:nmos_vtl:@:lmin:@:ILNC xachain_1.xmux2to1_t2.xand_1.m_i_10:@:pmos_vtl:@:lmin:@:ILNC xachain_1.xmux2to1_t2.xand_1.m_i_11:@:pmos_vtl:@:lmin:@:ILNC xachain_1.xmux2to1_t2.xand_1.m_i_1:@:pmos_vtl:@:lmin:@:ILNC xachain_1.xmux2to1_t2.xor_1.m_i_2:@:nmos_vtl:@:lmin:@:ILNC xachain_1.xmux2to1_t2.xor_1.m_i_3:@:nmos_vtl:@:lmin:@:ILNC xachain_1.xmux2to1_t2.xor_1.m_i_0:@:nmos_vtl:@:lmin:@:ILNC xachain_1.xmux2to1_t2.xor_1.m_i_10:@:pmos_vtl:@:lmin:@:ILNC xachain_1.xmux2to1_t2.xor_1.m_i_11:@:pmos_vtl:@:lmin:@:ILNC xachain_1.xmux2to1_t2.xor_1.m_i_1:@:pmos_vtl:@:lmin:@:ILNC xachain_1.xmux2to1_b2.xinv_0.m_i_0:@:nmos_vtl:@:lmin:@:ILNC xachain_1.xmux2to1_b2.xinv_0.m_i_10:@:pmos_vtl:@:lmin:@:ILNC xachain_1.xmux2to1_b2.xand_0.m_i_2:@:nmos_vtl:@:lmin:@:ILNC xachain_1.xmux2to1_b2.xand_0.m_i_3:@:nmos_vtl:@:lmin:@:ILNC xachain_1.xmux2to1_b2.xand_0.m_i_0:@:nmos_vtl:@:lmin:@:ILNC xachain_1.xmux2to1_b2.xand_0.m_i_10:@:pmos_vtl:@:lmin:@:ILNC xachain_1.xmux2to1_b2.xand_0.m_i_11:@:pmos_vtl:@:lmin:@:ILNC xachain_1.xmux2to1_b2.xand_0.m_i_1:@:pmos_vtl:@:lmin:@:ILNC xachain_1.xmux2to1_b2.xand_1.m_i_2:@:nmos_vtl:@:lmin:@:ILNC xachain_1.xmux2to1_b2.xand_1.m_i_3:@:nmos_vtl:@:lmin:@:ILNC xachain_1.xmux2to1_b2.xand_1.m_i_0:@:nmos_vtl:@:lmin:@:ILNC xachain_1.xmux2to1_b2.xand_1.m_i_10:@:pmos_vtl:@:lmin:@:ILNC xachain_1.xmux2to1_b2.xand_1.m_i_11:@:pmos_vtl:@:lmin:@:ILNC xachain_1.xmux2to1_b2.xand_1.m_i_1:@:pmos_vtl:@:lmin:@:ILNC xachain_1.xmux2to1_b2.xor_1.m_i_2:@:nmos_vtl:@:lmin:@:ILNC xachain_1.xmux2to1_b2.xor_1.m_i_3:@:nmos_vtl:@:lmin:@:ILNC xachain_1.xmux2to1_b2.xor_1.m_i_0:@:nmos_vtl:@:lmin:@:ILNC xachain_1.xmux2to1_b2.xor_1.m_i_10:@:pmos_vtl:@:lmin:@:ILNC xachain_1.xmux2to1_b2.xor_1.m_i_11:@:pmos_vtl:@:lmin:@:ILNC xachain_1.xmux2to1_b2.xor_1.m_i_1:@:pmos_vtl:@:lmin:@:ILNC xachain_1.xmux2to1_t3.xinv_0.m_i_0:@:nmos_vtl:@:lmin:@:ILNC xachain_1.xmux2to1_t3.xinv_0.m_i_10:@:pmos_vtl:@:lmin:@:ILNC xachain_1.xmux2to1_t3.xand_0.m_i_2:@:nmos_vtl:@:lmin:@:ILNC xachain_1.xmux2to1_t3.xand_0.m_i_3:@:nmos_vtl:@:lmin:@:ILNC xachain_1.xmux2to1_t3.xand_0.m_i_0:@:nmos_vtl:@:lmin:@:ILNC xachain_1.xmux2to1_t3.xand_0.m_i_10:@:pmos_vtl:@:lmin:@:ILNC xachain_1.xmux2to1_t3.xand_0.m_i_11:@:pmos_vtl:@:lmin:@:ILNC xachain_1.xmux2to1_t3.xand_0.m_i_1:@:pmos_vtl:@:lmin:@:ILNC xachain_1.xmux2to1_t3.xand_1.m_i_2:@:nmos_vtl:@:lmin:@:ILNC xachain_1.xmux2to1_t3.xand_1.m_i_3:@:nmos_vtl:@:lmin:@:ILNC xachain_1.xmux2to1_t3.xand_1.m_i_0:@:nmos_vtl:@:lmin:@:ILNC xachain_1.xmux2to1_t3.xand_1.m_i_10:@:pmos_vtl:@:lmin:@:ILNC xachain_1.xmux2to1_t3.xand_1.m_i_11:@:pmos_vtl:@:lmin:@:ILNC xachain_1.xmux2to1_t3.xand_1.m_i_1:@:pmos_vtl:@:lmin:@:ILNC xachain_1.xmux2to1_t3.xor_1.m_i_2:@:nmos_vtl:@:lmin:@:ILNC xachain_1.xmux2to1_t3.xor_1.m_i_3:@:nmos_vtl:@:lmin:@:ILNC xachain_1.xmux2to1_t3.xor_1.m_i_0:@:nmos_vtl:@:lmin:@:ILNC xachain_1.xmux2to1_t3.xor_1.m_i_10:@:pmos_vtl:@:lmin:@:ILNC xachain_1.xmux2to1_t3.xor_1.m_i_11:@:pmos_vtl:@:lmin:@:ILNC xachain_1.xmux2to1_t3.xor_1.m_i_1:@:pmos_vtl:@:lmin:@:ILNC xachain_1.xmux2to1_b3.xinv_0.m_i_0:@:nmos_vtl:@:lmin:@:ILNC xachain_1.xmux2to1_b3.xinv_0.m_i_10:@:pmos_vtl:@:lmin:@:ILNC xachain_1.xmux2to1_b3.xand_0.m_i_2:@:nmos_vtl:@:lmin:@:ILNC xachain_1.xmux2to1_b3.xand_0.m_i_3:@:nmos_vtl:@:lmin:@:ILNC xachain_1.xmux2to1_b3.xand_0.m_i_0:@:nmos_vtl:@:lmin:@:ILNC xachain_1.xmux2to1_b3.xand_0.m_i_10:@:pmos_vtl:@:lmin:@:ILNC xachain_1.xmux2to1_b3.xand_0.m_i_11:@:pmos_vtl:@:lmin:@:ILNC xachain_1.xmux2to1_b3.xand_0.m_i_1:@:pmos_vtl:@:lmin:@:ILNC xachain_1.xmux2to1_b3.xand_1.m_i_2:@:nmos_vtl:@:lmin:@:ILNC xachain_1.xmux2to1_b3.xand_1.m_i_3:@:nmos_vtl:@:lmin:@:ILNC xachain_1.xmux2to1_b3.xand_1.m_i_0:@:nmos_vtl:@:lmin:@:ILNC xachain_1.xmux2to1_b3.xand_1.m_i_10:@:pmos_vtl:@:lmin:@:ILNC xachain_1.xmux2to1_b3.xand_1.m_i_11:@:pmos_vtl:@:lmin:@:ILNC xachain_1.xmux2to1_b3.xand_1.m_i_1:@:pmos_vtl:@:lmin:@:ILNC xachain_1.xmux2to1_b3.xor_1.m_i_2:@:nmos_vtl:@:lmin:@:ILNC xachain_1.xmux2to1_b3.xor_1.m_i_3:@:nmos_vtl:@:lmin:@:ILNC xachain_1.xmux2to1_b3.xor_1.m_i_0:@:nmos_vtl:@:lmin:@:ILNC xachain_1.xmux2to1_b3.xor_1.m_i_10:@:pmos_vtl:@:lmin:@:ILNC xachain_1.xmux2to1_b3.xor_1.m_i_11:@:pmos_vtl:@:lmin:@:ILNC xachain_1.xmux2to1_b3.xor_1.m_i_1:@:pmos_vtl:@:lmin:@:ILNC xachain_1.xmux2to1_t4.xinv_0.m_i_0:@:nmos_vtl:@:lmin:@:ILNC xachain_1.xmux2to1_t4.xinv_0.m_i_10:@:pmos_vtl:@:lmin:@:ILNC xachain_1.xmux2to1_t4.xand_0.m_i_2:@:nmos_vtl:@:lmin:@:ILNC xachain_1.xmux2to1_t4.xand_0.m_i_3:@:nmos_vtl:@:lmin:@:ILNC xachain_1.xmux2to1_t4.xand_0.m_i_0:@:nmos_vtl:@:lmin:@:ILNC xachain_1.xmux2to1_t4.xand_0.m_i_10:@:pmos_vtl:@:lmin:@:ILNC xachain_1.xmux2to1_t4.xand_0.m_i_11:@:pmos_vtl:@:lmin:@:ILNC xachain_1.xmux2to1_t4.xand_0.m_i_1:@:pmos_vtl:@:lmin:@:ILNC xachain_1.xmux2to1_t4.xand_1.m_i_2:@:nmos_vtl:@:lmin:@:ILNC xachain_1.xmux2to1_t4.xand_1.m_i_3:@:nmos_vtl:@:lmin:@:ILNC xachain_1.xmux2to1_t4.xand_1.m_i_0:@:nmos_vtl:@:lmin:@:ILNC xachain_1.xmux2to1_t4.xand_1.m_i_10:@:pmos_vtl:@:lmin:@:ILNC xachain_1.xmux2to1_t4.xand_1.m_i_11:@:pmos_vtl:@:lmin:@:ILNC xachain_1.xmux2to1_t4.xand_1.m_i_1:@:pmos_vtl:@:lmin:@:ILNC xachain_1.xmux2to1_t4.xor_1.m_i_2:@:nmos_vtl:@:lmin:@:ILNC xachain_1.xmux2to1_t4.xor_1.m_i_3:@:nmos_vtl:@:lmin:@:ILNC xachain_1.xmux2to1_t4.xor_1.m_i_0:@:nmos_vtl:@:lmin:@:ILNC xachain_1.xmux2to1_t4.xor_1.m_i_10:@:pmos_vtl:@:lmin:@:ILNC xachain_1.xmux2to1_t4.xor_1.m_i_11:@:pmos_vtl:@:lmin:@:ILNC xachain_1.xmux2to1_t4.xor_1.m_i_1:@:pmos_vtl:@:lmin:@:ILNC xachain_1.xmux2to1_b4.xinv_0.m_i_0:@:nmos_vtl:@:lmin:@:ILNC xachain_1.xmux2to1_b4.xinv_0.m_i_10:@:pmos_vtl:@:lmin:@:ILNC xachain_1.xmux2to1_b4.xand_0.m_i_2:@:nmos_vtl:@:lmin:@:ILNC xachain_1.xmux2to1_b4.xand_0.m_i_3:@:nmos_vtl:@:lmin:@:ILNC xachain_1.xmux2to1_b4.xand_0.m_i_0:@:nmos_vtl:@:lmin:@:ILNC xachain_1.xmux2to1_b4.xand_0.m_i_10:@:pmos_vtl:@:lmin:@:ILNC xachain_1.xmux2to1_b4.xand_0.m_i_11:@:pmos_vtl:@:lmin:@:ILNC xachain_1.xmux2to1_b4.xand_0.m_i_1:@:pmos_vtl:@:lmin:@:ILNC xachain_1.xmux2to1_b4.xand_1.m_i_2:@:nmos_vtl:@:lmin:@:ILNC xachain_1.xmux2to1_b4.xand_1.m_i_3:@:nmos_vtl:@:lmin:@:ILNC xachain_1.xmux2to1_b4.xand_1.m_i_0:@:nmos_vtl:@:lmin:@:ILNC xachain_1.xmux2to1_b4.xand_1.m_i_10:@:pmos_vtl:@:lmin:@:ILNC xachain_1.xmux2to1_b4.xand_1.m_i_11:@:pmos_vtl:@:lmin:@:ILNC xachain_1.xmux2to1_b4.xand_1.m_i_1:@:pmos_vtl:@:lmin:@:ILNC xachain_1.xmux2to1_b4.xor_1.m_i_2:@:nmos_vtl:@:lmin:@:ILNC xachain_1.xmux2to1_b4.xor_1.m_i_3:@:nmos_vtl:@:lmin:@:ILNC xachain_1.xmux2to1_b4.xor_1.m_i_0:@:nmos_vtl:@:lmin:@:ILNC xachain_1.xmux2to1_b4.xor_1.m_i_10:@:pmos_vtl:@:lmin:@:ILNC xachain_1.xmux2to1_b4.xor_1.m_i_11:@:pmos_vtl:@:lmin:@:ILNC xachain_1.xmux2to1_b4.xor_1.m_i_1:@:pmos_vtl:@:lmin:@:ILNC xachain_1.xmux2to1_t5.xinv_0.m_i_0:@:nmos_vtl:@:lmin:@:ILNC xachain_1.xmux2to1_t5.xinv_0.m_i_10:@:pmos_vtl:@:lmin:@:ILNC xachain_1.xmux2to1_t5.xand_0.m_i_2:@:nmos_vtl:@:lmin:@:ILNC xachain_1.xmux2to1_t5.xand_0.m_i_3:@:nmos_vtl:@:lmin:@:ILNC xachain_1.xmux2to1_t5.xand_0.m_i_0:@:nmos_vtl:@:lmin:@:ILNC xachain_1.xmux2to1_t5.xand_0.m_i_10:@:pmos_vtl:@:lmin:@:ILNC xachain_1.xmux2to1_t5.xand_0.m_i_11:@:pmos_vtl:@:lmin:@:ILNC xachain_1.xmux2to1_t5.xand_0.m_i_1:@:pmos_vtl:@:lmin:@:ILNC xachain_1.xmux2to1_t5.xand_1.m_i_2:@:nmos_vtl:@:lmin:@:ILNC xachain_1.xmux2to1_t5.xand_1.m_i_3:@:nmos_vtl:@:lmin:@:ILNC xachain_1.xmux2to1_t5.xand_1.m_i_0:@:nmos_vtl:@:lmin:@:ILNC xachain_1.xmux2to1_t5.xand_1.m_i_10:@:pmos_vtl:@:lmin:@:ILNC xachain_1.xmux2to1_t5.xand_1.m_i_11:@:pmos_vtl:@:lmin:@:ILNC xachain_1.xmux2to1_t5.xand_1.m_i_1:@:pmos_vtl:@:lmin:@:ILNC xachain_1.xmux2to1_t5.xor_1.m_i_2:@:nmos_vtl:@:lmin:@:ILNC xachain_1.xmux2to1_t5.xor_1.m_i_3:@:nmos_vtl:@:lmin:@:ILNC xachain_1.xmux2to1_t5.xor_1.m_i_0:@:nmos_vtl:@:lmin:@:ILNC xachain_1.xmux2to1_t5.xor_1.m_i_10:@:pmos_vtl:@:lmin:@:ILNC xachain_1.xmux2to1_t5.xor_1.m_i_11:@:pmos_vtl:@:lmin:@:ILNC xachain_1.xmux2to1_t5.xor_1.m_i_1:@:pmos_vtl:@:lmin:@:ILNC xachain_1.xmux2to1_b5.xinv_0.m_i_0:@:nmos_vtl:@:lmin:@:ILNC xachain_1.xmux2to1_b5.xinv_0.m_i_10:@:pmos_vtl:@:lmin:@:ILNC xachain_1.xmux2to1_b5.xand_0.m_i_2:@:nmos_vtl:@:lmin:@:ILNC xachain_1.xmux2to1_b5.xand_0.m_i_3:@:nmos_vtl:@:lmin:@:ILNC xachain_1.xmux2to1_b5.xand_0.m_i_0:@:nmos_vtl:@:lmin:@:ILNC xachain_1.xmux2to1_b5.xand_0.m_i_10:@:pmos_vtl:@:lmin:@:ILNC xachain_1.xmux2to1_b5.xand_0.m_i_11:@:pmos_vtl:@:lmin:@:ILNC xachain_1.xmux2to1_b5.xand_0.m_i_1:@:pmos_vtl:@:lmin:@:ILNC xachain_1.xmux2to1_b5.xand_1.m_i_2:@:nmos_vtl:@:lmin:@:ILNC xachain_1.xmux2to1_b5.xand_1.m_i_3:@:nmos_vtl:@:lmin:@:ILNC xachain_1.xmux2to1_b5.xand_1.m_i_0:@:nmos_vtl:@:lmin:@:ILNC xachain_1.xmux2to1_b5.xand_1.m_i_10:@:pmos_vtl:@:lmin:@:ILNC xachain_1.xmux2to1_b5.xand_1.m_i_11:@:pmos_vtl:@:lmin:@:ILNC xachain_1.xmux2to1_b5.xand_1.m_i_1:@:pmos_vtl:@:lmin:@:ILNC xachain_1.xmux2to1_b5.xor_1.m_i_2:@:nmos_vtl:@:lmin:@:ILNC xachain_1.xmux2to1_b5.xor_1.m_i_3:@:nmos_vtl:@:lmin:@:ILNC xachain_1.xmux2to1_b5.xor_1.m_i_0:@:nmos_vtl:@:lmin:@:ILNC xachain_1.xmux2to1_b5.xor_1.m_i_10:@:pmos_vtl:@:lmin:@:ILNC xachain_1.xmux2to1_b5.xor_1.m_i_11:@:pmos_vtl:@:lmin:@:ILNC xachain_1.xmux2to1_b5.xor_1.m_i_1:@:pmos_vtl:@:lmin:@:ILNC xachain_1.xmux2to1_t6.xinv_0.m_i_0:@:nmos_vtl:@:lmin:@:ILNC xachain_1.xmux2to1_t6.xinv_0.m_i_10:@:pmos_vtl:@:lmin:@:ILNC xachain_1.xmux2to1_t6.xand_0.m_i_2:@:nmos_vtl:@:lmin:@:ILNC xachain_1.xmux2to1_t6.xand_0.m_i_3:@:nmos_vtl:@:lmin:@:ILNC xachain_1.xmux2to1_t6.xand_0.m_i_0:@:nmos_vtl:@:lmin:@:ILNC xachain_1.xmux2to1_t6.xand_0.m_i_10:@:pmos_vtl:@:lmin:@:ILNC xachain_1.xmux2to1_t6.xand_0.m_i_11:@:pmos_vtl:@:lmin:@:ILNC xachain_1.xmux2to1_t6.xand_0.m_i_1:@:pmos_vtl:@:lmin:@:ILNC xachain_1.xmux2to1_t6.xand_1.m_i_2:@:nmos_vtl:@:lmin:@:ILNC xachain_1.xmux2to1_t6.xand_1.m_i_3:@:nmos_vtl:@:lmin:@:ILNC xachain_1.xmux2to1_t6.xand_1.m_i_0:@:nmos_vtl:@:lmin:@:ILNC xachain_1.xmux2to1_t6.xand_1.m_i_10:@:pmos_vtl:@:lmin:@:ILNC xachain_1.xmux2to1_t6.xand_1.m_i_11:@:pmos_vtl:@:lmin:@:ILNC xachain_1.xmux2to1_t6.xand_1.m_i_1:@:pmos_vtl:@:lmin:@:ILNC xachain_1.xmux2to1_t6.xor_1.m_i_2:@:nmos_vtl:@:lmin:@:ILNC xachain_1.xmux2to1_t6.xor_1.m_i_3:@:nmos_vtl:@:lmin:@:ILNC xachain_1.xmux2to1_t6.xor_1.m_i_0:@:nmos_vtl:@:lmin:@:ILNC xachain_1.xmux2to1_t6.xor_1.m_i_10:@:pmos_vtl:@:lmin:@:ILNC xachain_1.xmux2to1_t6.xor_1.m_i_11:@:pmos_vtl:@:lmin:@:ILNC xachain_1.xmux2to1_t6.xor_1.m_i_1:@:pmos_vtl:@:lmin:@:ILNC xachain_1.xmux2to1_b6.xinv_0.m_i_0:@:nmos_vtl:@:lmin:@:ILNC xachain_1.xmux2to1_b6.xinv_0.m_i_10:@:pmos_vtl:@:lmin:@:ILNC xachain_1.xmux2to1_b6.xand_0.m_i_2:@:nmos_vtl:@:lmin:@:ILNC xachain_1.xmux2to1_b6.xand_0.m_i_3:@:nmos_vtl:@:lmin:@:ILNC xachain_1.xmux2to1_b6.xand_0.m_i_0:@:nmos_vtl:@:lmin:@:ILNC xachain_1.xmux2to1_b6.xand_0.m_i_10:@:pmos_vtl:@:lmin:@:ILNC xachain_1.xmux2to1_b6.xand_0.m_i_11:@:pmos_vtl:@:lmin:@:ILNC xachain_1.xmux2to1_b6.xand_0.m_i_1:@:pmos_vtl:@:lmin:@:ILNC xachain_1.xmux2to1_b6.xand_1.m_i_2:@:nmos_vtl:@:lmin:@:ILNC xachain_1.xmux2to1_b6.xand_1.m_i_3:@:nmos_vtl:@:lmin:@:ILNC xachain_1.xmux2to1_b6.xand_1.m_i_0:@:nmos_vtl:@:lmin:@:ILNC xachain_1.xmux2to1_b6.xand_1.m_i_10:@:pmos_vtl:@:lmin:@:ILNC xachain_1.xmux2to1_b6.xand_1.m_i_11:@:pmos_vtl:@:lmin:@:ILNC xachain_1.xmux2to1_b6.xand_1.m_i_1:@:pmos_vtl:@:lmin:@:ILNC xachain_1.xmux2to1_b6.xor_1.m_i_2:@:nmos_vtl:@:lmin:@:ILNC xachain_1.xmux2to1_b6.xor_1.m_i_3:@:nmos_vtl:@:lmin:@:ILNC xachain_1.xmux2to1_b6.xor_1.m_i_0:@:nmos_vtl:@:lmin:@:ILNC xachain_1.xmux2to1_b6.xor_1.m_i_10:@:pmos_vtl:@:lmin:@:ILNC xachain_1.xmux2to1_b6.xor_1.m_i_11:@:pmos_vtl:@:lmin:@:ILNC xachain_1.xmux2to1_b6.xor_1.m_i_1:@:pmos_vtl:@:lmin:@:ILNC xachain_1.xmux2to1_t7.xinv_0.m_i_0:@:nmos_vtl:@:lmin:@:ILNC xachain_1.xmux2to1_t7.xinv_0.m_i_10:@:pmos_vtl:@:lmin:@:ILNC xachain_1.xmux2to1_t7.xand_0.m_i_2:@:nmos_vtl:@:lmin:@:ILNC xachain_1.xmux2to1_t7.xand_0.m_i_3:@:nmos_vtl:@:lmin:@:ILNC xachain_1.xmux2to1_t7.xand_0.m_i_0:@:nmos_vtl:@:lmin:@:ILNC xachain_1.xmux2to1_t7.xand_0.m_i_10:@:pmos_vtl:@:lmin:@:ILNC xachain_1.xmux2to1_t7.xand_0.m_i_11:@:pmos_vtl:@:lmin:@:ILNC xachain_1.xmux2to1_t7.xand_0.m_i_1:@:pmos_vtl:@:lmin:@:ILNC xachain_1.xmux2to1_t7.xand_1.m_i_2:@:nmos_vtl:@:lmin:@:ILNC xachain_1.xmux2to1_t7.xand_1.m_i_3:@:nmos_vtl:@:lmin:@:ILNC xachain_1.xmux2to1_t7.xand_1.m_i_0:@:nmos_vtl:@:lmin:@:ILNC xachain_1.xmux2to1_t7.xand_1.m_i_10:@:pmos_vtl:@:lmin:@:ILNC xachain_1.xmux2to1_t7.xand_1.m_i_11:@:pmos_vtl:@:lmin:@:ILNC xachain_1.xmux2to1_t7.xand_1.m_i_1:@:pmos_vtl:@:lmin:@:ILNC xachain_1.xmux2to1_t7.xor_1.m_i_2:@:nmos_vtl:@:lmin:@:ILNC xachain_1.xmux2to1_t7.xor_1.m_i_3:@:nmos_vtl:@:lmin:@:ILNC xachain_1.xmux2to1_t7.xor_1.m_i_0:@:nmos_vtl:@:lmin:@:ILNC xachain_1.xmux2to1_t7.xor_1.m_i_10:@:pmos_vtl:@:lmin:@:ILNC xachain_1.xmux2to1_t7.xor_1.m_i_11:@:pmos_vtl:@:lmin:@:ILNC xachain_1.xmux2to1_t7.xor_1.m_i_1:@:pmos_vtl:@:lmin:@:ILNC xachain_1.xmux2to1_b7.xinv_0.m_i_0:@:nmos_vtl:@:lmin:@:ILNC xachain_1.xmux2to1_b7.xinv_0.m_i_10:@:pmos_vtl:@:lmin:@:ILNC xachain_1.xmux2to1_b7.xand_0.m_i_2:@:nmos_vtl:@:lmin:@:ILNC xachain_1.xmux2to1_b7.xand_0.m_i_3:@:nmos_vtl:@:lmin:@:ILNC xachain_1.xmux2to1_b7.xand_0.m_i_0:@:nmos_vtl:@:lmin:@:ILNC xachain_1.xmux2to1_b7.xand_0.m_i_10:@:pmos_vtl:@:lmin:@:ILNC xachain_1.xmux2to1_b7.xand_0.m_i_11:@:pmos_vtl:@:lmin:@:ILNC xachain_1.xmux2to1_b7.xand_0.m_i_1:@:pmos_vtl:@:lmin:@:ILNC xachain_1.xmux2to1_b7.xand_1.m_i_2:@:nmos_vtl:@:lmin:@:ILNC xachain_1.xmux2to1_b7.xand_1.m_i_3:@:nmos_vtl:@:lmin:@:ILNC xachain_1.xmux2to1_b7.xand_1.m_i_0:@:nmos_vtl:@:lmin:@:ILNC xachain_1.xmux2to1_b7.xand_1.m_i_10:@:pmos_vtl:@:lmin:@:ILNC xachain_1.xmux2to1_b7.xand_1.m_i_11:@:pmos_vtl:@:lmin:@:ILNC xachain_1.xmux2to1_b7.xand_1.m_i_1:@:pmos_vtl:@:lmin:@:ILNC xachain_1.xmux2to1_b7.xor_1.m_i_2:@:nmos_vtl:@:lmin:@:ILNC xachain_1.xmux2to1_b7.xor_1.m_i_3:@:nmos_vtl:@:lmin:@:ILNC xachain_1.xmux2to1_b7.xor_1.m_i_0:@:nmos_vtl:@:lmin:@:ILNC xachain_1.xmux2to1_b7.xor_1.m_i_10:@:pmos_vtl:@:lmin:@:ILNC xachain_1.xmux2to1_b7.xor_1.m_i_11:@:pmos_vtl:@:lmin:@:ILNC xachain_1.xmux2to1_b7.xor_1.m_i_1:@:pmos_vtl:@:lmin:@:ILNC xachain_1.xmux2to1_t8.xinv_0.m_i_0:@:nmos_vtl:@:lmin:@:ILNC xachain_1.xmux2to1_t8.xinv_0.m_i_10:@:pmos_vtl:@:lmin:@:ILNC xachain_1.xmux2to1_t8.xand_0.m_i_2:@:nmos_vtl:@:lmin:@:ILNC xachain_1.xmux2to1_t8.xand_0.m_i_3:@:nmos_vtl:@:lmin:@:ILNC xachain_1.xmux2to1_t8.xand_0.m_i_0:@:nmos_vtl:@:lmin:@:ILNC xachain_1.xmux2to1_t8.xand_0.m_i_10:@:pmos_vtl:@:lmin:@:ILNC xachain_1.xmux2to1_t8.xand_0.m_i_11:@:pmos_vtl:@:lmin:@:ILNC xachain_1.xmux2to1_t8.xand_0.m_i_1:@:pmos_vtl:@:lmin:@:ILNC xachain_1.xmux2to1_t8.xand_1.m_i_2:@:nmos_vtl:@:lmin:@:ILNC xachain_1.xmux2to1_t8.xand_1.m_i_3:@:nmos_vtl:@:lmin:@:ILNC xachain_1.xmux2to1_t8.xand_1.m_i_0:@:nmos_vtl:@:lmin:@:ILNC xachain_1.xmux2to1_t8.xand_1.m_i_10:@:pmos_vtl:@:lmin:@:ILNC xachain_1.xmux2to1_t8.xand_1.m_i_11:@:pmos_vtl:@:lmin:@:ILNC xachain_1.xmux2to1_t8.xand_1.m_i_1:@:pmos_vtl:@:lmin:@:ILNC xachain_1.xmux2to1_t8.xor_1.m_i_2:@:nmos_vtl:@:lmin:@:ILNC xachain_1.xmux2to1_t8.xor_1.m_i_3:@:nmos_vtl:@:lmin:@:ILNC xachain_1.xmux2to1_t8.xor_1.m_i_0:@:nmos_vtl:@:lmin:@:ILNC xachain_1.xmux2to1_t8.xor_1.m_i_10:@:pmos_vtl:@:lmin:@:ILNC xachain_1.xmux2to1_t8.xor_1.m_i_11:@:pmos_vtl:@:lmin:@:ILNC xachain_1.xmux2to1_t8.xor_1.m_i_1:@:pmos_vtl:@:lmin:@:ILNC xachain_1.xmux2to1_b8.xinv_0.m_i_0:@:nmos_vtl:@:lmin:@:ILNC xachain_1.xmux2to1_b8.xinv_0.m_i_10:@:pmos_vtl:@:lmin:@:ILNC xachain_1.xmux2to1_b8.xand_0.m_i_2:@:nmos_vtl:@:lmin:@:ILNC xachain_1.xmux2to1_b8.xand_0.m_i_3:@:nmos_vtl:@:lmin:@:ILNC xachain_1.xmux2to1_b8.xand_0.m_i_0:@:nmos_vtl:@:lmin:@:ILNC xachain_1.xmux2to1_b8.xand_0.m_i_10:@:pmos_vtl:@:lmin:@:ILNC xachain_1.xmux2to1_b8.xand_0.m_i_11:@:pmos_vtl:@:lmin:@:ILNC xachain_1.xmux2to1_b8.xand_0.m_i_1:@:pmos_vtl:@:lmin:@:ILNC xachain_1.xmux2to1_b8.xand_1.m_i_2:@:nmos_vtl:@:lmin:@:ILNC xachain_1.xmux2to1_b8.xand_1.m_i_3:@:nmos_vtl:@:lmin:@:ILNC xachain_1.xmux2to1_b8.xand_1.m_i_0:@:nmos_vtl:@:lmin:@:ILNC xachain_1.xmux2to1_b8.xand_1.m_i_10:@:pmos_vtl:@:lmin:@:ILNC xachain_1.xmux2to1_b8.xand_1.m_i_11:@:pmos_vtl:@:lmin:@:ILNC xachain_1.xmux2to1_b8.xand_1.m_i_1:@:pmos_vtl:@:lmin:@:ILNC xachain_1.xmux2to1_b8.xor_1.m_i_2:@:nmos_vtl:@:lmin:@:ILNC xachain_1.xmux2to1_b8.xor_1.m_i_3:@:nmos_vtl:@:lmin:@:ILNC xachain_1.xmux2to1_b8.xor_1.m_i_0:@:nmos_vtl:@:lmin:@:ILNC xachain_1.xmux2to1_b8.xor_1.m_i_10:@:pmos_vtl:@:lmin:@:ILNC xachain_1.xmux2to1_b8.xor_1.m_i_11:@:pmos_vtl:@:lmin:@:ILNC xachain_1.xmux2to1_b8.xor_1.m_i_1:@:pmos_vtl:@:lmin:@:ILNC xachain_1.xmux2to1_t9.xinv_0.m_i_0:@:nmos_vtl:@:lmin:@:ILNC xachain_1.xmux2to1_t9.xinv_0.m_i_10:@:pmos_vtl:@:lmin:@:ILNC xachain_1.xmux2to1_t9.xand_0.m_i_2:@:nmos_vtl:@:lmin:@:ILNC xachain_1.xmux2to1_t9.xand_0.m_i_3:@:nmos_vtl:@:lmin:@:ILNC xachain_1.xmux2to1_t9.xand_0.m_i_0:@:nmos_vtl:@:lmin:@:ILNC xachain_1.xmux2to1_t9.xand_0.m_i_10:@:pmos_vtl:@:lmin:@:ILNC xachain_1.xmux2to1_t9.xand_0.m_i_11:@:pmos_vtl:@:lmin:@:ILNC xachain_1.xmux2to1_t9.xand_0.m_i_1:@:pmos_vtl:@:lmin:@:ILNC xachain_1.xmux2to1_t9.xand_1.m_i_2:@:nmos_vtl:@:lmin:@:ILNC xachain_1.xmux2to1_t9.xand_1.m_i_3:@:nmos_vtl:@:lmin:@:ILNC xachain_1.xmux2to1_t9.xand_1.m_i_0:@:nmos_vtl:@:lmin:@:ILNC xachain_1.xmux2to1_t9.xand_1.m_i_10:@:pmos_vtl:@:lmin:@:ILNC xachain_1.xmux2to1_t9.xand_1.m_i_11:@:pmos_vtl:@:lmin:@:ILNC xachain_1.xmux2to1_t9.xand_1.m_i_1:@:pmos_vtl:@:lmin:@:ILNC xachain_1.xmux2to1_t9.xor_1.m_i_2:@:nmos_vtl:@:lmin:@:ILNC xachain_1.xmux2to1_t9.xor_1.m_i_3:@:nmos_vtl:@:lmin:@:ILNC xachain_1.xmux2to1_t9.xor_1.m_i_0:@:nmos_vtl:@:lmin:@:ILNC xachain_1.xmux2to1_t9.xor_1.m_i_10:@:pmos_vtl:@:lmin:@:ILNC xachain_1.xmux2to1_t9.xor_1.m_i_11:@:pmos_vtl:@:lmin:@:ILNC xachain_1.xmux2to1_t9.xor_1.m_i_1:@:pmos_vtl:@:lmin:@:ILNC xachain_1.xmux2to1_b9.xinv_0.m_i_0:@:nmos_vtl:@:lmin:@:ILNC xachain_1.xmux2to1_b9.xinv_0.m_i_10:@:pmos_vtl:@:lmin:@:ILNC xachain_1.xmux2to1_b9.xand_0.m_i_2:@:nmos_vtl:@:lmin:@:ILNC xachain_1.xmux2to1_b9.xand_0.m_i_3:@:nmos_vtl:@:lmin:@:ILNC xachain_1.xmux2to1_b9.xand_0.m_i_0:@:nmos_vtl:@:lmin:@:ILNC xachain_1.xmux2to1_b9.xand_0.m_i_10:@:pmos_vtl:@:lmin:@:ILNC xachain_1.xmux2to1_b9.xand_0.m_i_11:@:pmos_vtl:@:lmin:@:ILNC xachain_1.xmux2to1_b9.xand_0.m_i_1:@:pmos_vtl:@:lmin:@:ILNC xachain_1.xmux2to1_b9.xand_1.m_i_2:@:nmos_vtl:@:lmin:@:ILNC xachain_1.xmux2to1_b9.xand_1.m_i_3:@:nmos_vtl:@:lmin:@:ILNC xachain_1.xmux2to1_b9.xand_1.m_i_0:@:nmos_vtl:@:lmin:@:ILNC xachain_1.xmux2to1_b9.xand_1.m_i_10:@:pmos_vtl:@:lmin:@:ILNC xachain_1.xmux2to1_b9.xand_1.m_i_11:@:pmos_vtl:@:lmin:@:ILNC xachain_1.xmux2to1_b9.xand_1.m_i_1:@:pmos_vtl:@:lmin:@:ILNC xachain_1.xmux2to1_b9.xor_1.m_i_2:@:nmos_vtl:@:lmin:@:ILNC xachain_1.xmux2to1_b9.xor_1.m_i_3:@:nmos_vtl:@:lmin:@:ILNC xachain_1.xmux2to1_b9.xor_1.m_i_0:@:nmos_vtl:@:lmin:@:ILNC xachain_1.xmux2to1_b9.xor_1.m_i_10:@:pmos_vtl:@:lmin:@:ILNC xachain_1.xmux2to1_b9.xor_1.m_i_11:@:pmos_vtl:@:lmin:@:ILNC xachain_1.xmux2to1_b9.xor_1.m_i_1:@:pmos_vtl:@:lmin:@:ILNC xachain_1.xmux2to1_t10.xinv_0.m_i_0:@:nmos_vtl:@:lmin:@:ILNC xachain_1.xmux2to1_t10.xinv_0.m_i_10:@:pmos_vtl:@:lmin:@:ILNC xachain_1.xmux2to1_t10.xand_0.m_i_2:@:nmos_vtl:@:lmin:@:ILNC xachain_1.xmux2to1_t10.xand_0.m_i_3:@:nmos_vtl:@:lmin:@:ILNC xachain_1.xmux2to1_t10.xand_0.m_i_0:@:nmos_vtl:@:lmin:@:ILNC xachain_1.xmux2to1_t10.xand_0.m_i_10:@:pmos_vtl:@:lmin:@:ILNC xachain_1.xmux2to1_t10.xand_0.m_i_11:@:pmos_vtl:@:lmin:@:ILNC xachain_1.xmux2to1_t10.xand_0.m_i_1:@:pmos_vtl:@:lmin:@:ILNC xachain_1.xmux2to1_t10.xand_1.m_i_2:@:nmos_vtl:@:lmin:@:ILNC xachain_1.xmux2to1_t10.xand_1.m_i_3:@:nmos_vtl:@:lmin:@:ILNC xachain_1.xmux2to1_t10.xand_1.m_i_0:@:nmos_vtl:@:lmin:@:ILNC xachain_1.xmux2to1_t10.xand_1.m_i_10:@:pmos_vtl:@:lmin:@:ILNC xachain_1.xmux2to1_t10.xand_1.m_i_11:@:pmos_vtl:@:lmin:@:ILNC xachain_1.xmux2to1_t10.xand_1.m_i_1:@:pmos_vtl:@:lmin:@:ILNC xachain_1.xmux2to1_t10.xor_1.m_i_2:@:nmos_vtl:@:lmin:@:ILNC xachain_1.xmux2to1_t10.xor_1.m_i_3:@:nmos_vtl:@:lmin:@:ILNC xachain_1.xmux2to1_t10.xor_1.m_i_0:@:nmos_vtl:@:lmin:@:ILNC xachain_1.xmux2to1_t10.xor_1.m_i_10:@:pmos_vtl:@:lmin:@:ILNC xachain_1.xmux2to1_t10.xor_1.m_i_11:@:pmos_vtl:@:lmin:@:ILNC xachain_1.xmux2to1_t10.xor_1.m_i_1:@:pmos_vtl:@:lmin:@:ILNC xachain_1.xmux2to1_b10.xinv_0.m_i_0:@:nmos_vtl:@:lmin:@:ILNC xachain_1.xmux2to1_b10.xinv_0.m_i_10:@:pmos_vtl:@:lmin:@:ILNC xachain_1.xmux2to1_b10.xand_0.m_i_2:@:nmos_vtl:@:lmin:@:ILNC xachain_1.xmux2to1_b10.xand_0.m_i_3:@:nmos_vtl:@:lmin:@:ILNC xachain_1.xmux2to1_b10.xand_0.m_i_0:@:nmos_vtl:@:lmin:@:ILNC xachain_1.xmux2to1_b10.xand_0.m_i_10:@:pmos_vtl:@:lmin:@:ILNC xachain_1.xmux2to1_b10.xand_0.m_i_11:@:pmos_vtl:@:lmin:@:ILNC xachain_1.xmux2to1_b10.xand_0.m_i_1:@:pmos_vtl:@:lmin:@:ILNC xachain_1.xmux2to1_b10.xand_1.m_i_2:@:nmos_vtl:@:lmin:@:ILNC xachain_1.xmux2to1_b10.xand_1.m_i_3:@:nmos_vtl:@:lmin:@:ILNC xachain_1.xmux2to1_b10.xand_1.m_i_0:@:nmos_vtl:@:lmin:@:ILNC xachain_1.xmux2to1_b10.xand_1.m_i_10:@:pmos_vtl:@:lmin:@:ILNC xachain_1.xmux2to1_b10.xand_1.m_i_11:@:pmos_vtl:@:lmin:@:ILNC xachain_1.xmux2to1_b10.xand_1.m_i_1:@:pmos_vtl:@:lmin:@:ILNC xachain_1.xmux2to1_b10.xor_1.m_i_2:@:nmos_vtl:@:lmin:@:ILNC xachain_1.xmux2to1_b10.xor_1.m_i_3:@:nmos_vtl:@:lmin:@:ILNC xachain_1.xmux2to1_b10.xor_1.m_i_0:@:nmos_vtl:@:lmin:@:ILNC xachain_1.xmux2to1_b10.xor_1.m_i_10:@:pmos_vtl:@:lmin:@:ILNC xachain_1.xmux2to1_b10.xor_1.m_i_11:@:pmos_vtl:@:lmin:@:ILNC xachain_1.xmux2to1_b10.xor_1.m_i_1:@:pmos_vtl:@:lmin:@:ILNC xachain_1.xmux2to1_t11.xinv_0.m_i_0:@:nmos_vtl:@:lmin:@:ILNC xachain_1.xmux2to1_t11.xinv_0.m_i_10:@:pmos_vtl:@:lmin:@:ILNC xachain_1.xmux2to1_t11.xand_0.m_i_2:@:nmos_vtl:@:lmin:@:ILNC xachain_1.xmux2to1_t11.xand_0.m_i_3:@:nmos_vtl:@:lmin:@:ILNC xachain_1.xmux2to1_t11.xand_0.m_i_0:@:nmos_vtl:@:lmin:@:ILNC xachain_1.xmux2to1_t11.xand_0.m_i_10:@:pmos_vtl:@:lmin:@:ILNC xachain_1.xmux2to1_t11.xand_0.m_i_11:@:pmos_vtl:@:lmin:@:ILNC xachain_1.xmux2to1_t11.xand_0.m_i_1:@:pmos_vtl:@:lmin:@:ILNC xachain_1.xmux2to1_t11.xand_1.m_i_2:@:nmos_vtl:@:lmin:@:ILNC xachain_1.xmux2to1_t11.xand_1.m_i_3:@:nmos_vtl:@:lmin:@:ILNC xachain_1.xmux2to1_t11.xand_1.m_i_0:@:nmos_vtl:@:lmin:@:ILNC xachain_1.xmux2to1_t11.xand_1.m_i_10:@:pmos_vtl:@:lmin:@:ILNC xachain_1.xmux2to1_t11.xand_1.m_i_11:@:pmos_vtl:@:lmin:@:ILNC xachain_1.xmux2to1_t11.xand_1.m_i_1:@:pmos_vtl:@:lmin:@:ILNC xachain_1.xmux2to1_t11.xor_1.m_i_2:@:nmos_vtl:@:lmin:@:ILNC xachain_1.xmux2to1_t11.xor_1.m_i_3:@:nmos_vtl:@:lmin:@:ILNC xachain_1.xmux2to1_t11.xor_1.m_i_0:@:nmos_vtl:@:lmin:@:ILNC xachain_1.xmux2to1_t11.xor_1.m_i_10:@:pmos_vtl:@:lmin:@:ILNC xachain_1.xmux2to1_t11.xor_1.m_i_11:@:pmos_vtl:@:lmin:@:ILNC xachain_1.xmux2to1_t11.xor_1.m_i_1:@:pmos_vtl:@:lmin:@:ILNC xachain_1.xmux2to1_b11.xinv_0.m_i_0:@:nmos_vtl:@:lmin:@:ILNC xachain_1.xmux2to1_b11.xinv_0.m_i_10:@:pmos_vtl:@:lmin:@:ILNC xachain_1.xmux2to1_b11.xand_0.m_i_2:@:nmos_vtl:@:lmin:@:ILNC xachain_1.xmux2to1_b11.xand_0.m_i_3:@:nmos_vtl:@:lmin:@:ILNC xachain_1.xmux2to1_b11.xand_0.m_i_0:@:nmos_vtl:@:lmin:@:ILNC xachain_1.xmux2to1_b11.xand_0.m_i_10:@:pmos_vtl:@:lmin:@:ILNC xachain_1.xmux2to1_b11.xand_0.m_i_11:@:pmos_vtl:@:lmin:@:ILNC xachain_1.xmux2to1_b11.xand_0.m_i_1:@:pmos_vtl:@:lmin:@:ILNC xachain_1.xmux2to1_b11.xand_1.m_i_2:@:nmos_vtl:@:lmin:@:ILNC xachain_1.xmux2to1_b11.xand_1.m_i_3:@:nmos_vtl:@:lmin:@:ILNC xachain_1.xmux2to1_b11.xand_1.m_i_0:@:nmos_vtl:@:lmin:@:ILNC xachain_1.xmux2to1_b11.xand_1.m_i_10:@:pmos_vtl:@:lmin:@:ILNC xachain_1.xmux2to1_b11.xand_1.m_i_11:@:pmos_vtl:@:lmin:@:ILNC xachain_1.xmux2to1_b11.xand_1.m_i_1:@:pmos_vtl:@:lmin:@:ILNC xachain_1.xmux2to1_b11.xor_1.m_i_2:@:nmos_vtl:@:lmin:@:ILNC xachain_1.xmux2to1_b11.xor_1.m_i_3:@:nmos_vtl:@:lmin:@:ILNC xachain_1.xmux2to1_b11.xor_1.m_i_0:@:nmos_vtl:@:lmin:@:ILNC xachain_1.xmux2to1_b11.xor_1.m_i_10:@:pmos_vtl:@:lmin:@:ILNC xachain_1.xmux2to1_b11.xor_1.m_i_11:@:pmos_vtl:@:lmin:@:ILNC xachain_1.xmux2to1_b11.xor_1.m_i_1:@:pmos_vtl:@:lmin:@:ILNC xachain_1.xmux2to1_t12.xinv_0.m_i_0:@:nmos_vtl:@:lmin:@:ILNC xachain_1.xmux2to1_t12.xinv_0.m_i_10:@:pmos_vtl:@:lmin:@:ILNC xachain_1.xmux2to1_t12.xand_0.m_i_2:@:nmos_vtl:@:lmin:@:ILNC xachain_1.xmux2to1_t12.xand_0.m_i_3:@:nmos_vtl:@:lmin:@:ILNC xachain_1.xmux2to1_t12.xand_0.m_i_0:@:nmos_vtl:@:lmin:@:ILNC xachain_1.xmux2to1_t12.xand_0.m_i_10:@:pmos_vtl:@:lmin:@:ILNC xachain_1.xmux2to1_t12.xand_0.m_i_11:@:pmos_vtl:@:lmin:@:ILNC xachain_1.xmux2to1_t12.xand_0.m_i_1:@:pmos_vtl:@:lmin:@:ILNC xachain_1.xmux2to1_t12.x
[...]
+00  2.5522766e-01  1.6059455e+00 -1.8821574e-01 -9.3865401e-01  1.0735485e+00 -1.7938955e-01  4.8889550e-01 -2.4490128e+00 -2.7324671e+00 -3.5497711e-01 -4.6470341e-01 -2.3239002e-01  1.6801340e-02 -6.0297849e-01 -1.0355519e+00 -4.7592273e-01  2.5630805e+00 -1.8484921e+00 -1.1046939e+00  2.2235430e+00  1.5436379e+00 -1.7636586e+00  9.2891010e-01 -2.0018494e+00 -1.0499020e+00 -9.2199087e-02  1.1923111e-01 -1.2258658e+00  1.2083428e+00  4.3465713e-01 -9.3697263e-01 -1.1319652e+00  1.0148437e+00  8.1984539e-01 -3.4867632e-01  3.0984323e-01 -5.2626746e-01  3.7810827e-01 -1.6768964e+00  7.3398663e-01 -3.2540439e-01 -5.3554718e-01 -1.6073052e+00 -5.2686109e-02  9.8349725e-01  5.0450774e-01  2.2560705e+00  9.5206990e-01  4.0456127e-01  8.4182082e-01 -6.4401171e-01 -2.6373707e-01  2.0680205e-01  3.5007188e-01 -1.8984996e+00 -1.7377794e+00  2.0537956e+00  2.1096708e-02 -1.2526452e+00 -1.8272130e-01  4.5370516e-01 -1.1519472e-01 -2.2837531e-01 -4.0783263e-01  2.8728013e-02 -1.8158703e+00 -3.0336260e-01 -1.1026841e+00  1.4886386e+00 -1.6115028e+00 -7.6194669e-01  1.3261657e+00 -4.1213681e-01 -1.2216353e+00 -7.0695541e-01 -5.1388636e-02  6.4817630e-01  7.4755531e-01 -1.6231971e+00 -1.1471639e+00  8.5462793e-01  2.1640966e+00  1.0183302e+00 -1.0643352e+00  7.4952258e-02 -6.6380555e-01 -8.8221068e-01  5.7971250e-01 -4.8037312e-01 -4.4209830e-01  2.7614167e-01 -1.4331425e+00 -6.2443596e-01  8.5714931e-01  2.2985140e+00  1.7598027e+00 -7.2054854e-01 -3.5145586e-01  5.9420134e-01 -8.2454851e-01 -3.8655600e-01 -3.4349957e-01  7.7008238e-01 -6.7789521e-01 -9.0123175e-01 -7.6314492e-01 -3.7902499e-02 -1.2562941e+00  1.1084173e+00 -8.0638415e-01 -1.1090675e+00 -1.0357905e+00  1.2397802e+00 -2.1152145e-01 -2.4680209e-01  1.7197989e-01  5.2914515e-01  7.0999262e-02 -3.3990636e-01 -4.9691409e-01 -2.6311831e-01  1.3133664e+00  1.4048875e+00 -5.6525999e-01 -1.1979819e+00  3.1578962e-01 -2.4408862e+00 -3.5705503e-01 -1.9213164e+00 -9.3171781e-01 -6.8608402e-01  1.4363990e+00  7.4837274e-01  5.0237285e-01  3.4894702e-02 -7.0780479e-01 -1.1677691e+00 -1.2126909e+00  1.2314971e-01  6.0257041e-01 -4.6162438e-01  7.4116796e-01  3.6732373e-02 -6.8334311e-01 -1.1820895e+00  1.3303122e+00  9.7174623e-01 -8.9555030e-01  3.9003252e-01  4.0417481e-01  3.5502786e-01  2.2187782e+00 -5.4816719e-01 -5.3727267e-01  1.8843118e+00 -2.3162719e-01 -1.8924976e+00 -7.8147975e-01 -9.0435217e-01 -7.3837634e-01  1.0885651e+00  2.3364515e-02 -1.2639763e-01 -3.5694487e-02 -5.5830821e-01  1.3025545e+00 -6.0034356e-01 -1.1847760e+00  8.3711058e-01 -2.5015147e-01  1.8463671e+00  3.2306248e-01  7.7090261e-01 -2.2305841e-01 -1.4215520e+00 -5.6361720e-01 -2.2143161e+00  1.1225138e-01 -5.8157803e-01 -8.0537360e-01 -1.5245907e-01  5.9549884e-01 -8.0556941e-02  1.9342220e+00  1.6097853e-01  2.4525521e+00 -1.3808302e+00 -2.3132010e-01 -3.2595561e-01 -3.5804865e-01 -6.4060796e-01 -2.4268750e-01 -2.2095026e-01 -9.2852640e-01  2.3833232e+00 -3.1931120e+00  1.3586862e+00 -1.2491999e+00  6.3118810e-01 -3.6804754e-01 -1.1935537e-01 -2.4632562e-01  5.2772198e-01  6.6909402e-01 -9.3963380e-01 -2.0595298e+00 -7.6138447e-01 -2.4825959e-01 -1.4270806e+00 -6.5865075e-01  1.4377902e+00  3.9851659e-01 -4.0332327e-01  9.4020193e-01  6.6068945e-01  2.5727952e-01 -2.8027339e-01 -9.4349048e-01  1.0150001e+00 -1.4049183e+00 -1.6496896e+00 -6.7854992e-01 -8.8961955e-01 -9.7171489e-01  2.2410737e+00 -1.5557349e-01 -8.5241062e-01  1.1435458e-01 -5.0583807e-01 -6.9219464e-01  1.8962813e-01  2.3865409e-01  2.3673361e-01 -1.0980934e+00 -3.0698173e-01  7.5178439e-01 -1.1297711e+00  1.5859323e+00  1.4287621e-01  1.8698047e+00 -1.5286398e+00 -4.8267735e-01 -3.1734836e-01  5.1371600e-01  8.7594268e-01 -4.7241513e-01  2.0789250e+00 -4.3372492e-01  1.1163528e-01 -1.1842269e+00 -1.0690941e+00  2.2561285e-01  1.4847195e+00  9.0640499e-01 -1.4360128e+00 -9.7989512e-02  1.0455878e+00 -1.0493690e+00 -7.1748253e-01  1.5540331e+00 -1.3840645e+00 -3.5500126e-02  2.0530165e-01  1.3462049e+00 -9.4113876e-01 -2.6470547e-01  9.6298436e-01  1.6062533e+00 -4.2646774e-01 -1.1353394e+00 -1.8814398e-01 -1.4513896e+00  4.3788171e-01 -1.9314674e+00 -4.2482867e-01  3.9126832e-01 -1.0610746e+00 -1.0485705e+00 -6.4434562e-01 -2.6254084e-01  7.5555927e-01  6.4909954e-01 -1.0728759e+00  2.1433037e-01  3.7064444e-02  1.1599320e-01 -1.1810150e+00 -1.3447538e+00 -6.7582263e-01  1.5463140e+00  6.8096714e-01 -2.4040686e-01  8.2824131e-01  3.8753198e-01 -2.7103536e-01  1.3017701e+00 -4.5315255e-01 -1.2364019e+00  5.9698504e-01  4.6723893e-01 -7.6301800e-01 -5.8897639e-01  3.5190021e-02 -4.0707929e-01 -1.2713083e-02 -7.2460446e-02 -2.1764021e-01  3.4223968e-02  2.3292418e-01  1.0846342e+00  5.3754883e-01 -4.2417610e-01 -7.9311759e-01  6.5012408e-01 -1.4940847e+00  6.2256238e-01  6.5390195e-01 -1.2981941e-02  5.3501272e-01  1.3882468e-01  1.3038905e-01  4.3128006e-01  1.0219482e+00  1.1080551e+00  8.3300639e-01  2.5282543e-01  4.0013244e-01  4.3528755e-01  1.2658310e+00  9.5311189e-01 -7.0773350e-01  3.6764946e-01 -1.6034464e-01 -1.2316220e+00  9.7112189e-01  3.7430472e-01 -5.9828616e-01  9.4775447e-01 -1.6269018e+00  2.9320272e-01  1.4472508e-01  4.8721414e-03 -4.9434857e-01 -3.7955943e-01  2.9051694e-01  1.5010252e-01  8.5273184e-01 -9.7394106e-01 -1.9731356e+00  1.5641535e+00 -1.1012001e+00  1.2687443e+00 -1.2690445e+00  1.2688936e+00 -7.1546949e-02 -5.4854369e-01 -5.3483126e-01 -1.3134383e+00  6.1868214e-02 -2.4740151e-01 -1.1970316e+00  1.0767000e+00  1.1390273e+00  2.4940270e-01  5.0106301e-01 -3.3927249e-01  1.5678996e-01  8.1344758e-01  6.2678478e-03 -2.2132282e-01  4.1731813e-01  3.7876344e-01  1.0935634e+00 -7.6046785e-01 -1.1017496e+00  3.0383862e+00 -4.9621760e-01  1.4277790e+00 -1.7343611e-01  1.5852852e+00  2.9464878e-01  2.7261966e-01 -3.3196293e-02 -1.6248036e-01 -1.6937798e-01  1.4116294e+00 -3.2492225e-01 -1.3679990e+00 -1.4961507e+00 -5.6765482e-01  1.8998416e-01  1.9025973e+00  1.0221825e+00 -1.4668219e+00  9.0282681e-02  1.4680754e+00  7.2283854e-01  1.4028589e+00 -4.9417972e-01  1.7532770e+00  5.0773851e-01 -9.4918954e-01 -8.3401005e-01  9.9090964e-01 -1.6316631e+00 -1.3332053e+00  1.8068747e+00 -3.3630574e-01  1.4434714e+00 -2.4725664e-01  1.9905739e+00 -5.5500701e-01  4.6414736e-01 -1.2860713e+00 -7.7663139e-01  2.3081263e+00  4.3273418e-01 -4.1972402e-01  1.1858487e+00 -9.3799729e-01 -2.9641479e-01  2.4653887e-01 -5.7142641e-01 -2.1446257e-01 -1.6874809e+00 -8.5471820e-01 -5.7176204e-01 -2.4533164e-01 -1.0005935e-01  1.0392348e+00  1.0105519e-01 -6.4270683e-01  4.2417428e-01 -1.7611470e+00  9.6775113e-02  7.2110361e-01  1.1475989e+00 -1.0111257e+00  4.9613143e-01  1.5442562e-01  2.5486771e+00 -2.7812363e+00  6.0753388e-01  1.4268529e+00 -2.3429414e-01  8.2943283e-01 -4.0462458e-01  7.5193669e-01 -1.7028839e+00  1.4496289e+00  1.8319549e+00 -1.6144162e+00  1.1468080e+00 -2.0432906e-01 -2.7628482e-01  2.0683516e+00 -1.2183495e+00  1.2852214e+00 -1.2528676e+00 -4.0662335e-01  1.0329082e-01 -1.1943888e+00  1.6219201e+00 -2.3038049e-01 -4.9668822e-01 -1.0413752e+00 -1.5293927e+00  1.0609930e+00 -7.5015081e-01  2.5165776e-02  7.1833080e-01  1.0061263e+00  7.0377413e-01 -6.5269449e-02  3.6704969e-01  2.4581643e-02  8.0180628e-01 -1.4940719e+00 -2.0184499e+00  7.2884563e-01  2.9888842e-01 -1.2123952e+00 -1.4985079e+00  4.9585582e-01 -1.1098350e+00  2.8064411e-01  1.8005962e-01  1.3359040e+00  2.1502083e+00  3.6441342e-01 -3.8422819e-01  2.4992778e+00  6.2509816e-01  1.5463763e+00  7.8163648e-01 -1.0165584e+00  6.2777346e-02  9.7092531e-02 -9.4906202e-01 -4.6577477e-01  1.3679104e+00  4.2342520e-01 -7.7730827e-01  4.3817677e-02  1.4715170e-01  2.9630790e-01 -8.0132474e-02  9.0261066e-01  3.9806841e-01 -5.3501022e-01  3.2276417e-01 -3.1540142e+00 -4.6111216e-01  1.9989898e+00 -2.6879891e-01  8.1563588e-01 -1.9151243e+00 -2.9565901e-02  1.7320702e+00  8.9824518e-01  1.6942193e+00  1.3263718e+00 -4.2146745e-02  8.2950438e-02 -1.8888425e+00  6.7267535e-01 -9.0190525e-01  5.2251702e-01  2.6201729e+00  2.8333892e-01 -4.6684241e-01  8.4532386e-01  7.4744469e-01 -8.2089970e-01  1.1239162e+00 -9.0563284e-01 -4.3519974e-01  9.2372309e-03 -4.4781164e-01  9.1290261e-01  9.3306640e-01  1.0107637e+00 -2.5692140e-01  9.7303672e-01  5.6638299e-01 -2.8994684e-01 -9.7082012e-02  2.3185911e-01  7.7193831e-01  1.4087458e-01 -8.2138621e-01 -1.1099876e+00 -5.9404685e-01 -1.5959267e+00  1.9778550e+00  6.3908405e-01  3.6625995e-01 -1.2682453e+00  6.1876063e-01  2.4953688e+00  6.4547276e-01 -7.3422306e-01  4.1831187e-02  5.7910216e-01  7.2615509e-01 -4.4200037e-01 -1.6492825e-01  3.5706410e-01  1.2290963e+00 -9.9586051e-01  4.1380547e-01  2.9668325e-01 -6.6236461e-01  4.8385877e-01  2.1675916e+00  1.2738561e+00  9.0053725e-01 -1.7376741e-01  7.4158727e-01  1.2749577e+00 -1.8914939e+00  1.1930684e+00  1.1958901e+00  5.8688692e-01  8.0909498e-01  3.0118067e-01 -5.4832624e-01 -2.1172511e+00 -1.2035003e+00  3.2267184e-01  1.6959088e-01 -2.3285585e-01 -2.4397152e-01  1.8104881e+00 -8.1450038e-01  1.2508713e+00  9.8836476e-01 -1.4323666e-01 -1.5438557e-01 -3.2726161e-01  6.3740961e-01  1.0680966e+00  3.9032131e-02  3.5535754e-01 -7.2091857e-01 -1.3239140e+00 -6.9712180e-01 -2.0245178e+00  3.3378569e-01 -2.4926363e+00  4.8147231e-01  9.7486455e-01 -8.7194403e-01  4.0199304e-01 -1.0767962e+00 -3.9795695e-01  1.3851526e+00  1.1447670e-01 -2.0991054e+00 -1.4488376e+00 -1.0227766e+00  4.8588750e-01  3.3199784e-02  1.2958648e+00 -2.2445179e-01  2.5915306e-01  4.5239700e-01  3.5866909e-01 -2.6190578e-01  5.2120029e-01  1.2371376e+00 -1.1673445e+00 -4.1493841e-01  9.4002094e-01 -4.6031259e-01 -6.4062211e-01  9.2130218e-01 -3.8403173e-01  9.7529728e-01 -1.3887917e+00 -2.3614594e+00  1.7931493e+00  3.7632917e-01 -6.9027687e-01  1.7889787e-01 -1.6915706e+00  4.4999412e-01 -2.8417786e-01 -1.0108433e-01 -4.7887453e-02 -3.9362578e-01 -1.0310071e+00  1.7494561e+00 -1.5308725e+00  8.4748948e-01 -1.2388517e-01 -6.7698215e-01  5.7205900e-01 -1.0309841e+00 -1.0190595e+00 -1.4212400e-01  1.2738724e+00  1.0562500e+00  5.8902375e-01  1.1171080e+00  7.9885138e-01 -2.3061291e-01  1.3835702e-01  7.0476087e-01 -1.1102072e+00 -6.4113235e-01 -3.8789150e-01  4.5966509e-01  1.4046234e+00 -1.8170522e+00 -1.5811402e-01  8.3296436e-01 -9.3366065e-01 -8.5184196e-01  6.7738141e-01  9.7485570e-01  8.8250229e-01 -7.7580171e-01 -2.8799674e-01  1.1822534e+00  2.0729042e-01 -1.2697205e+00 -1.3470892e+00 -7.5112392e-01  3.6826648e-01 -2.0928510e+00  4.5531728e-01 -1.0310761e-02  1.1214089e+00 -1.1345433e+00  1.8504550e+00  2.2699562e-01 -3.7903448e-01  3.3294626e-01  1.0920899e-01 -3.5366650e-01  7.6747269e-01 -1.3422848e+00 -2.5947047e-02 -3.5848233e-01 -2.1559487e-01 -1.5315928e+00  5.1537478e-02 -5.4741686e-01  2.0962607e-01  5.2754728e-01  1.0975927e-01 -1.8516180e-01  9.6864922e-01  1.7637942e-01 -1.0979350e-01 -3.0181418e-01 -6.7386387e-01  4.9347387e-01  2.4177545e-01 -7.6157562e-01  1.2569215e+00  1.0716678e-01 -6.4984085e-02  1.3030320e-01 -2.1875471e+00 -1.5251327e-01  1.4781446e+00 -1.0333200e+00  1.6505372e+00  3.2901745e-01  1.5267131e+00  1.0488033e+00 -4.5268103e-01 -5.1585386e-01 -1.4407605e+00 -1.5378222e+00  6.2479694e-01 -6.3503244e-01 -7.5558894e-01  2.0633551e-01 -8.4492875e-01  1.4709668e+00  7.8605104e-01  1.3484619e+00 -2.0549097e+00 -6.6481130e-01 -4.9828059e-01 -1.7343920e-01 -1.4563870e+00  5.4146246e-01 -1.9245012e-01 -1.6523419e+00  3.4415461e-01  7.2936775e-01 -3.0322328e-01 -1.7046341e-02 -2.8879477e-01  2.5700996e-01  6.7654310e-01 -9.0265531e-01  2.1024786e-01 -4.1244483e-01  1.8325363e+00  1.0928146e+00  9.0105823e-01  6.7715683e-01 -2.5440452e+00  4.8722697e-01 -3.7882032e-01 -8.1494164e-01  5.9611390e-01 -2.0565145e-01 -1.1558036e-02  3.3275034e-01  1.6339266e+00  6.3299450e-02  2.0847687e+00 -4.5665076e-01 -2.2666238e-01  1.3595676e-01 -3.4530416e-01  2.7031838e-01 -1.0766337e+00 -1.0203277e+00 -6.6919862e-02 -6.2293099e-01 -8.7969307e-01 -1.5719512e-01 -7.3875781e-01 -6.0568860e-01  1.7052373e-01  6.8427273e-01 -5.0447575e-01  2.6767086e-02  1.3199550e-01  1.0840458e+00  1.9605357e+00  1.1804592e+00  1.4861335e+00 -5.0207974e-01  1.5371636e-01 -6.2533702e-01  2.6493775e-01  7.5200358e-01 -1.4254341e+00 -6.5608066e-01  1.0293716e+00 -3.7041356e-01 -3.5585847e-01  2.4161127e-02  1.0695707e-01  1.1684254e+00  2.1690982e+00  2.2044987e+00 -6.7899884e-01  1.6022851e-01 -4.8719985e-02  3.2123818e-01  1.1805608e+00  4.5797520e-01  2.4053895e-01 -1.6884570e+00  1.0913034e+00 -5.2310425e-01  2.6217046e+00 -1.2559993e+00  4.0350201e-01 -1.2880061e-01 -2.4393064e+00 -2.6370034e+00 -3.8917134e-01  5.4488763e-02 -5.2983227e-02 -5.3932654e-01  6.4114841e-01  1.3506157e+00  2.9477869e-01  1.3425546e+00  1.3919784e+00  1.1580871e+00  1.2241734e-02  8.4730402e-01  9.8921965e-01  4.7475312e-01  1.0748679e-01 -1.1208913e+00  1.2043590e+00 -1.7000197e+00  1.3021417e+00  2.7504352e-01 -6.6771632e-01  1.7919756e+00 -7.6058982e-01  6.4043110e-01 -1.1421707e+00  1.0660157e+00  1.0706546e-01  2.5322109e-01 -4.7368003e-01  1.4297396e-01  1.2264125e+00 -1.9253507e-02  4.9346886e-01 -1.2948342e-01 -6.1727702e-01 -4.9650125e-01 -7.1229203e-02  1.0879540e+00  3.8966025e-01 -5.9342554e-02  3.7843095e-01 -1.4658324e+00 -2.7208324e-01 -7.0252094e-01 -4.0398193e-01 -1.8382726e+00 -6.1731411e-01  6.6345076e-01  9.9798807e-02  2.7474883e-01  6.4129851e-01 -1.1955651e+00 -1.0370864e+00 -1.7760842e+00  1.2717098e-01  1.1295193e+00 -2.8372906e-01 -1.5800328e-01 -5.4291407e-01 -4.9382625e-01 -7.1868164e-02  5.6032758e-01 -1.0653783e+00 -1.7008096e-01 -4.0742968e-01 -1.5737720e+00 -2.7002731e+00 -5.5031188e-01 -1.2223391e+00  6.7092583e-01 -2.3273552e-01  1.8810188e+00 -2.3115912e-02  2.6102528e-01  1.4550361e+00 -1.3425994e+00 -1.9644542e+00 -6.5301446e-01  1.0099436e+00 -1.3630583e-01  4.2648123e-02  2.8513250e-01  1.3701688e+00 -9.7547607e-01 -1.0640826e+00 -2.5386067e-01 -5.7854747e-01 -1.5975779e-01  6.7373301e-01  3.5513382e-01 -1.1509652e+00  2.1645339e+00 -5.4731934e-01  4.5127884e-01  5.3872645e-01 -3.0816007e-01 -9.6665725e-01  3.4410492e-01 -6.5336997e-01 -2.1656458e-01 -2.7596058e-01  1.1887137e-01 -2.5120630e-01 -5.2241880e-01 -7.4157327e-01  3.2595247e-01 -4.9352965e-01  5.2547922e-01  8.0579262e-01 -1.3139398e+00 -1.1377944e+00  5.5220807e-01  1.2424081e-01  9.3288162e-01 -1.0476382e-01 -7.6344359e-01 -1.3577661e+00 -7.2165133e-02  3.2943830e-01 -7.4239238e-01  5.9077655e-01  2.4580690e-01 -8.1388011e-01 -1.5525610e+00 -2.0157910e-01  1.0443019e+00 -1.0504355e+00  1.9810026e+00  5.0604132e-01 -4.7432019e-01 -1.2343006e+00 -1.2001709e+00 -1.0028696e+00  1.8021978e+00 -7.2149099e-01  6.3879203e-01 -3.0747465e-01  1.8183148e+00  1.0995365e+00  8.7078345e-02  4.3122822e-01  5.1040251e-02 -4.3240200e-01 -1.0537718e+00  9.2416874e-02  1.6488633e+00  4.5022615e-01 -2.9191075e-01  3.8586277e-01 -2.3351691e-01  1.4564022e+00 -1.5589830e+00  7.2354387e-01  2.0296335e-01 -1.1549489e+00 -1.3794869e+00 -1.6017183e+00 -1.5995128e+00 -1.2543085e+00 -3.9405772e-01  8.9463910e-01  7.3735612e-01  1.2434953e+00  6.1184250e-02 -9.5491991e-01 -5.9312782e-01  3.0007258e-01  3.9719296e-02  1.1153687e+00 -8.1674534e-02 -6.4068971e-01  1.2293582e+00  1.7730252e+00 -4.2015099e-01  9.6175793e-01 -2.2713559e+00 -1.6282152e+00 -6.9764927e-01  1.6194527e+00  2.2000823e+00  5.7236602e-02  1.6210132e+00  1.6903721e+00 -3.1380757e-01 -1.5934533e+00  3.1478409e-01  3.0821207e-01  1.4171323e+00  6.5545866e-02 -7.1116923e-01 -2.1547945e-01 -6.2535720e-01 -2.1767849e-01 -9.7564171e-01  3.3788229e-01  1.5228342e+00  9.7338581e-02 -1.4691742e+00 -7.3076759e-01 -1.2040905e+00  9.0199929e-01  1.2213314e-01  7.8079462e-01 -1.8205185e+00  8.6671167e-01  7.4948311e-01 -2.5008761e-01 -1.4361354e+00  1.0707772e+00  1.5869388e+00 -1.2711681e-01 -3.3853065e-01  3.1670036e-01  8.8375002e-01  1.4748360e+00  1.2391615e+00 -1.0117347e+00  6.1428277e-01  1.4343251e+00  4.4033798e-02  2.0975840e-01 -1.7239304e+00 -1.4782221e+00 -6.2140924e-01  2.5346679e+00  8.5093193e-01  5.9886897e-01 -1.3297486e+00  1.5997329e+00  1.7801687e+00  6.8687447e-01  1.3681365e+00  1.3343746e+00  1.9464599e+00  9.2567227e-01  1.3801907e-01 -1.0392114e+00 -1.4840801e-01 -4.3922282e-01 -1.8139357e+00 -4.7473085e-01 -1.7622754e-01  2.8728412e-01  4.0667146e-01 -6.2161786e-01 -5.4971562e-01  7.3958975e-01  1.6857196e+00  1.0519655e+00 -5.2672035e-01 -1.0590029e+00 -1.4236651e+00 -6.6760145e-01 -1.7558030e+00  6.6407379e-01  1.6525257e+00  2.3667367e+00  7.8454105e-01 -1.3179930e+00 -8.5854524e-01 -2.6265578e-01 -1.8501457e-02  1.2844588e+00 -2.3485105e+00 -1.7481187e-01 -1.1903680e+00 -2.5348926e-02  1.1792624e+00  1.0575688e+00 -1.0886375e+00 -1.1402657e-01  8.9348036e-01 -8.8004962e-01 -1.5769105e+00  1.2740618e+00  7.9804606e-02  1.0710510e+00  7.9554606e-01  9.0844870e-01  8.1007920e-02 -1.3856730e+00  1.1644484e-01  1.6264965e+00  4.8576544e-01  7.0252410e-01  6.4514149e-01 -6.2366281e-01  1.2207925e+00 -1.3751365e+00 -5.1318417e-01  2.5201242e-01  5.0155093e-01  1.4084741e+00  7.6273199e-02 -1.6695912e+00 -1.2242138e+00  5.3918498e-01 -1.9524307e+00  8.0373014e-01 -1.8850941e+00 -7.6356634e-01 -1.3010916e+00  8.1510857e-01 -8.1569634e-01  1.5813522e+00  9.4641757e-01  2.0308561e+00 -1.6502593e+00 -4.1781309e-01 -8.9682318e-01  1.1703194e+00  8.6524295e-01 -9.8324939e-02  9.7752559e-01 -6.0204651e-01 -2.7859658e-02  2.9762807e-01  5.2521366e-02  2.0949113e+00  3.8400459e-01 -1.1601746e-01 -6.5469844e-01 -8.9473499e-01  1.9563894e+00 -8.0258158e-01  3.2789322e-01  1.3246268e-01  2.3705802e-01 -6.1287776e-01  7.3781435e-01 -3.9828074e-02  7.7301930e-01  9.7037413e-01 -2.2210809e-01 -1.3423309e+00 -1.4009790e-01 -4.1233897e-01 -1.1392764e+00 -1.2724469e+00  8.4196286e-01 -8.6626295e-01 -1.3625195e+00 -1.9032439e+00 -7.9746033e-02  2.3986003e-01  1.5473624e+00  5.1567942e-02  4.7428817e-01  3.1855573e-01  7.2732891e-01  5.6249196e-01  2.1115311e-01  7.6146135e-02  1.6079459e+00  8.7047146e-01 -5.1808065e-01  1.1055866e+00  1.3317090e+00  1.7078959e-01  1.1169097e+00  7.1117377e-01  3.9769712e-01 -3.4238691e-01  2.1761769e-01 -5.6707041e-01  2.5291295e-02 -8.2458969e-01 -2.7511693e-01  4.0814345e-01  1.2913807e+00 -2.1405111e+00  5.1878779e-01 -3.3863796e-02 -1.9668904e+00 -5.9027244e-01  2.0087027e+00  1.5875152e+00 -3.0371759e-01 -7.0636372e-01  5.5511517e-01 -1.1443334e+00  3.9961924e-01 -7.2588920e-02 -1.0501758e+00 -1.4268653e-01  1.0599717e+00  1.0713242e+00 -4.1140568e-01 -4.3767313e-02 -9.3129297e-01  6.2874068e-01 -3.5034641e-01 -1.2591172e+00 -2.1177575e+00 -5.6897279e-01  4.4801063e-01  1.9345946e+00  3.3059338e-01  1.2213562e+00 -7.7596859e-01  1.5570806e-01  7.5705577e-01 -7.5003754e-02  1.3076205e+00  2.5090353e+00  1.4964998e+00  8.6674821e-01 -1.0765338e+00  3.5998209e-01 -1.0484367e+00  2.7882342e+00 -1.0066302e+00  5.4699705e-02 -1.1746777e+00  9.9267636e-01  3.8624055e-01  1.8586324e+00  4.3781371e-02 -2.7291964e-01  1.1016984e+00  2.8059787e-02 -1.3443247e+00  8.2241937e-01  1.6633071e-01 -7.6337874e-01 -1.3037431e-01  1.3804528e+00  1.2045454e+00  6.3349605e-01 -1.7322569e-01 -1.0669251e+00 -2.6331458e-02 -7.1096721e-01  6.0550873e-01  1.3502238e+00 -6.4785428e-02 -1.0536638e+00 -6.6399725e-01 -1.2343816e+00 -1.6473664e-02 -5.0587591e-01 -9.7994066e-01  5.1553442e-01  1.8793554e+00  3.6812541e-01  4.1295552e-01  1.8883562e-02 -9.4737840e-02 -2.0139817e-01  4.7695723e-01 -1.1650175e+00 -5.7632868e-01 -3.3772974e-01 -4.2220549e-01  6.6913293e-01  4.0692604e-01 -1.1501769e+00 -2.4142559e-01  1.1369769e+00  2.0662872e+00  7.4084114e-01  1.7741066e+00  1.6910144e+00  7.0215559e-01 -1.5442102e+00 -1.4298207e+00  3.9875379e-01 -1.2514365e-01 -1.2533998e+00 -8.4958296e-01  2.4984653e+00 -1.2346538e+00  4.2680965e-02 -1.5243411e+00 -5.7713352e-01  7.4961626e-01 -7.5622833e-01  8.3090711e-01 -1.4733255e+00  8.5743014e-01  1.2262029e-01 -1.3267243e+00  6.0128121e-01  7.0983624e-01  1.7756674e+00  1.2123994e+00  1.0849392e+00 -1.8565032e-01  9.1987680e-01 -5.1610907e-01 -3.1582397e-01 -9.3358304e-01  1.1120021e+00 -4.3763637e-01  1.0331625e+00  1.2105877e+00  3.7122207e-01  3.6960837e-01 -2.6621944e-01 -6.5569316e-01  1.4914900e+00  8.2795852e-01 
