 ****** HSPICE -- L-2016.06-SP2-2 linux64 (Jan 24 2017) ******                  
  Copyright (c) 1986 - 2017 by Synopsys, Inc. All Rights Reserved.              
  This software and the associated documentation are proprietary
  to Synopsys, Inc. This software may only be used in accordance
  with the terms and conditions of a written license agreement with
  Synopsys, Inc. All other use, reproduction, or distribution of
  this software is strictly prohibited.
  Input File: PUF.sp                                                            
  Command line options: /afs/umbc.edu/software/synopsys/software/hspice/hspice/linux64/hspice PUF.sp -o
 lic:  
 lic: FLEXlm: v11.2.1 
 lic: USER:   brianw5              HOSTNAME: cadence2.cs.umbc.edu 
 lic: HOSTID: 005056950d98         PID:      20891 
 lic: Using FLEXlm license file: 
 lic: 27020@license5.umbc.edu 
 lic: Checkout 1 hspice 
 lic: License/Maintenance for hspice will expire on 25-mar-2018/2016.06 
 lic: 9(in_use)/50(total) FLOATING license(s) on SERVER 27020@license5.umbc.edu 
 lic:   
  **warning** (PUF.sp:9) runlvl smaller than 5, reset to 5 when accurate turned on
  **info** Monte Carlo simulation is detected, increase number of measure digits to 7 for Monte Carlo post processing.

 **warning**  runlvl smaller than 5, reset to 5 when accurate turned on
  **info** (PUF.sp:25) DC voltage reset to initial transient source value in source 0:vclk. new dc=0.0000D+00
  **warning** (pmos_vtl:m_mp2 (/afs/umbc.edu/users/b/r/brianw5/home/CMPE691/hw8/all_gates:219)) Warning:  Acde = 0.300892 may be too small in BSIM4 model with w=3.15e-07 l=5e-08.
*** info *** index=1 is a nominal sample in Monte Carlo.
*** info *** The MCG Random Number Generator and .Option Use_Agauss_Format = Yes are set as defaults starting with HSPICE L-2016.06 to address the needs of advanced technology nodes with large samples and/or large circuits, particularly for distributed processing.
*** Should you want backward compatibility, please use the following options:
For traditional Gaussian style variations, use .Option Random_Generator = 3LC;
For Variation Block style variations, use .Option Random_Generator = MOA.
  
      

MONTE CARLO DEFINITIONS


Option sampling_method was set, variation block and agauss format variation are in effect.

Random number generator is MCG            , and seed =      1, stream =   1
 **info** set option symb=1 internally to help for convergence.
 *****************************************************************
 ******  option summary
 ******
 runlvl  = 5         bypass  = 2.0000    
  Opening plot unit= 15
 file=PUF.pa0


   *** monte carlo  index =            1 ***

 ******
 **puf spice file**

 ****** transient analysis tnom=  25.000 temp=  80.000 ******
x

 time         voltage    voltage    voltage    voltage   
             in         out0       out1       out2       
  5.0000e-09  0.000e+00  1.475e-04  1.475e-04  1.475e-04 
  1.0000e-08  0.000e+00  1.474e-04  1.474e-04  1.474e-04 
  1.5000e-08  0.000e+00  1.474e-04  1.474e-04  1.474e-04 
  2.0000e-08  0.000e+00  1.474e-04  1.474e-04  1.474e-04 
  2.5000e-08  0.000e+00  1.474e-04  1.474e-04  1.474e-04 
  3.0000e-08  0.000e+00  1.475e-04  1.475e-04  1.475e-04 
  3.5000e-08  0.000e+00  1.475e-04  1.475e-04  1.475e-04 
  4.0000e-08  0.000e+00  1.474e-04  1.474e-04  1.474e-04 
  4.5000e-08  0.000e+00  1.474e-04  1.474e-04  1.474e-04 
  5.0000e-08  0.000e+00  1.473e-04  1.473e-04  1.473e-04 
  5.5000e-08  0.000e+00  1.474e-04  1.474e-04  1.474e-04 
  6.0000e-08  0.000e+00  1.474e-04  1.474e-04  1.474e-04 
  6.5000e-08  0.000e+00  1.474e-04  1.474e-04  1.474e-04 
  7.0000e-08  0.000e+00  1.474e-04  1.474e-04  1.474e-04 
  7.5000e-08  0.000e+00  1.474e-04  1.474e-04  1.474e-04 
  8.0000e-08  0.000e+00  1.474e-04  1.474e-04  1.474e-04 
y
x

 time         voltage    voltage    voltage    voltage   
             out3       out4       out5       out6       
  5.0000e-09  1.475e-04  1.475e-04  1.475e-04  1.475e-04 
  1.0000e-08  1.474e-04  1.474e-04  1.474e-04  1.474e-04 
  1.5000e-08  1.474e-04  1.474e-04  1.474e-04  1.474e-04 
  2.0000e-08  1.474e-04  1.474e-04  1.474e-04  1.474e-04 
  2.5000e-08  1.474e-04  1.474e-04  1.474e-04  1.474e-04 
  3.0000e-08  1.475e-04  1.475e-04  1.475e-04  1.475e-04 
  3.5000e-08  1.475e-04  1.475e-04  1.475e-04  1.475e-04 
  4.0000e-08  1.474e-04  1.474e-04  1.474e-04  1.474e-04 
  4.5000e-08  1.474e-04  1.474e-04  1.474e-04  1.474e-04 
  5.0000e-08  1.473e-04  1.473e-04  1.473e-04  1.473e-04 
  5.5000e-08  1.474e-04  1.474e-04  1.474e-04  1.474e-04 
  6.0000e-08  1.474e-04  1.474e-04  1.474e-04  1.474e-04 
  6.5000e-08  1.474e-04  1.474e-04  1.474e-04  1.474e-04 
  7.0000e-08  1.474e-04  1.474e-04  1.474e-04  1.474e-04 
  7.5000e-08  1.474e-04  1.474e-04  1.474e-04  1.474e-04 
  8.0000e-08  1.474e-04  1.474e-04  1.474e-04  1.474e-04 
y
x

 time         voltage   
             out7       
  5.0000e-09  1.475e-04 
  1.0000e-08  1.474e-04 
  1.5000e-08  1.474e-04 
  2.0000e-08  1.474e-04 
  2.5000e-08  1.474e-04 
  3.0000e-08  1.475e-04 
  3.5000e-08  1.475e-04 
  4.0000e-08  1.474e-04 
  4.5000e-08  1.474e-04 
  5.0000e-08  1.473e-04 
  5.5000e-08  1.474e-04 
  6.0000e-08  1.474e-04 
  6.5000e-08  1.474e-04 
  7.0000e-08  1.474e-04 
  7.5000e-08  1.474e-04 
  8.0000e-08  1.474e-04 
y

          ***** job concluded
 **error** L54: Effective channel length <= 0 for 'm_i_0 (/afs/umbc.edu/users/b/r/brianw5/home/CMPE691/hw8/all_gates:9)'

          ***** job aborted
 no convergence with standard algorithm,  trying damped pseudo-transient

  **info** time step too small in pseudo tran. delta=4.44089e-19

   *** pseudo tran failed *** 
  *** gshunt ramping started *** 
  **info** gshunt ramping failed 

 trying gmath ramping method

  **info** op convergence successful with gmath ramping method

   *** monte carlo  index =            3 ***

x

 time         voltage    voltage    voltage    voltage   
             in         out0       out1       out2       
  5.0000e-09  0.000e+00  1.043e-05  6.682e-06  1.100e+00 
  1.0000e-08  0.000e+00  1.044e-05  1.100e+00  1.100e+00 
  1.5000e-08  0.000e+00  1.100e+00  1.100e+00  7.554e-01 
  2.0000e-08  0.000e+00  1.052e-05  1.100e+00  7.554e-01 
  2.5000e-08  0.000e+00  1.043e-05  1.100e+00  7.554e-01 
  3.0000e-08  0.000e+00  1.042e-05  1.100e+00  7.554e-01 
  3.5000e-08  0.000e+00  1.100e+00  6.672e-06  7.554e-01 
  4.0000e-08  0.000e+00  1.042e-05  6.692e-06  7.554e-01 
  4.5000e-08  0.000e+00  1.043e-05  6.699e-06  7.554e-01 
  5.0000e-08  0.000e+00  1.043e-05  6.652e-06  7.554e-01 
  5.5000e-08  0.000e+00  1.100e+00  6.669e-06  7.554e-01 
  6.0000e-08  0.000e+00  1.100e+00  6.756e-06  7.554e-01 
  6.5000e-08  0.000e+00  1.100e+00  1.100e+00  7.554e-01 
  7.0000e-08  0.000e+00  1.042e-05  6.765e-06  7.554e-01 
  7.5000e-08  0.000e+00  1.043e-05  6.682e-06  1.100e+00 
  8.0000e-08  0.000e+00  1.043e-05  6.707e-06  1.100e+00 
y
x

 time         voltage    voltage    voltage    voltage   
             out3       out4       out5       out6       
  5.0000e-09  7.437e-06  1.100e+00  1.100e+00  1.100e+00 
  1.0000e-08  7.406e-06  1.100e+00  1.100e+00  1.100e+00 
  1.5000e-08  7.765e-06  1.536e-05  8.335e-05  1.100e+00 
  2.0000e-08  7.408e-06  1.536e-05  8.336e-05  1.100e+00 
  2.5000e-08  7.328e-06  1.100e+00  8.323e-05  1.100e+00 
  3.0000e-08  7.373e-06  1.100e+00  8.323e-05  1.100e+00 
  3.5000e-08  1.100e+00  1.100e+00  8.323e-05  1.100e+00 
  4.0000e-08  1.100e+00  1.537e-05  1.100e+00  1.100e+00 
  4.5000e-08  7.385e-06  1.100e+00  8.335e-05  1.100e+00 
  5.0000e-08  1.100e+00  1.100e+00  8.325e-05  1.100e+00 
  5.5000e-08  1.100e+00  1.100e+00  1.100e+00  1.100e+00 
  6.0000e-08  7.375e-06  1.537e-05  8.336e-05  1.100e+00 
  6.5000e-08  7.392e-06  1.100e+00  8.335e-05  1.100e+00 
  7.0000e-08  7.399e-06  1.539e-05  8.324e-05  1.100e+00 
  7.5000e-08  7.398e-06  1.100e+00  1.100e+00  1.100e+00 
  8.0000e-08  7.398e-06  1.100e+00  1.100e+00  1.100e+00 
y
x

 time         voltage   
             out7       
  5.0000e-09  2.839e-03 
  1.0000e-08  2.839e-03 
  1.5000e-08  1.100e+00 
  2.0000e-08  1.100e+00 
  2.5000e-08  1.100e+00 
  3.0000e-08  1.100e+00 
  3.5000e-08  1.100e+00 
  4.0000e-08  1.100e+00 
  4.5000e-08  1.100e+00 
  5.0000e-08  1.100e+00 
  5.5000e-08  1.100e+00 
  6.0000e-08  1.100e+00 
  6.5000e-08  1.100e+00 
  7.0000e-08  1.100e+00 
  7.5000e-08  1.100e+00 
  8.0000e-08  1.100e+00 
y

          ***** job concluded

   *** monte carlo  index =            4 ***

x

 time         voltage    voltage    voltage    voltage   
             in         out0       out1       out2       
  5.0000e-09  0.000e+00  6.967e-05  4.017e-04  1.138e-04 
  1.0000e-08  0.000e+00  6.967e-05  4.017e-04  1.138e-04 
  1.5000e-08  0.000e+00  6.967e-05  1.099e+00  1.138e-04 
  2.0000e-08  0.000e+00  6.967e-05  1.099e+00  1.138e-04 
  2.5000e-08  0.000e+00  1.100e+00  1.099e+00  1.100e+00 
  3.0000e-08  0.000e+00  1.100e+00  1.099e+00  1.100e+00 
  3.5000e-08  0.000e+00  1.100e+00  1.099e+00  1.138e-04 
  4.0000e-08  0.000e+00  1.100e+00  1.099e+00  1.139e-04 
  4.5000e-08  0.000e+00  1.100e+00  1.099e+00  1.138e-04 
  5.0000e-08  0.000e+00  1.100e+00  1.099e+00  1.100e+00 
  5.5000e-08  0.000e+00  1.100e+00  1.099e+00  1.138e-04 
  6.0000e-08  0.000e+00  1.100e+00  1.099e+00  1.138e-04 
  6.5000e-08  0.000e+00  1.100e+00  1.099e+00  1.138e-04 
  7.0000e-08  0.000e+00  1.100e+00  1.099e+00  1.138e-04 
  7.5000e-08  0.000e+00  1.100e+00  1.099e+00  1.139e-04 
  8.0000e-08  0.000e+00  1.100e+00  1.099e+00  1.138e-04 
y
x

 time         voltage    voltage    voltage    voltage   
             out3       out4       out5       out6       
  5.0000e-09  1.097e+00  9.098e-05  1.100e+00  1.023e+00 
  1.0000e-08  1.097e+00  9.104e-05  1.100e+00  1.023e+00 
  1.5000e-08  1.097e+00  1.100e+00  1.100e+00  1.023e+00 
  2.0000e-08  1.097e+00  1.100e+00  1.100e+00  1.023e+00 
  2.5000e-08  1.097e+00  1.100e+00  1.100e+00  1.023e+00 
  3.0000e-08  5.282e-04  9.105e-05  1.100e+00  1.023e+00 
  3.5000e-08  5.283e-04  9.107e-05  1.100e+00  1.023e+00 
  4.0000e-08  5.499e-04  1.100e+00  1.100e+00  1.023e+00 
  4.5000e-08  5.499e-04  1.100e+00  1.100e+00  1.023e+00 
  5.0000e-08  1.097e+00  9.106e-05  1.100e+00  1.023e+00 
  5.5000e-08  1.097e+00  9.103e-05  1.100e+00  1.023e+00 
  6.0000e-08  1.097e+00  1.100e+00  1.100e+00  8.577e-06 
  6.5000e-08  1.097e+00  1.100e+00  1.100e+00  1.023e+00 
  7.0000e-08  1.097e+00  9.101e-05  1.100e+00  1.023e+00 
  7.5000e-08  5.283e-04  1.100e+00  1.100e+00  8.568e-06 
  8.0000e-08  5.283e-04  1.100e+00  1.100e+00  8.566e-06 
y
x

 time         voltage   
             out7       
  5.0000e-09  1.376e-04 
  1.0000e-08  1.377e-04 
  1.5000e-08  1.376e-04 
  2.0000e-08  1.376e-04 
  2.5000e-08  1.100e+00 
  3.0000e-08  1.376e-04 
  3.5000e-08  1.100e+00 
  4.0000e-08  1.376e-04 
  4.5000e-08  1.378e-04 
  5.0000e-08  1.100e+00 
  5.5000e-08  1.376e-04 
  6.0000e-08  1.376e-04 
  6.5000e-08  1.376e-04 
  7.0000e-08  1.376e-04 
  7.5000e-08  1.376e-04 
  8.0000e-08  1.377e-04 
y

          ***** job concluded
 no convergence with standard algorithm,  trying damped pseudo-transient

 
 **info** number of iteration exceeds min(7000, 20*itl1)= 4000 in pseudo
 tran process (converge=1 process). Usually this happens when the
 models are discontinous, or there are uninitialized bi-stable cells
 (flip-flop) in the circuit. By setting options dcon=-1 and converge=-1
 you can disable auto convergence process. Retry the run, non-convergence
 diagnostics will provide useful information about the nodes and devices
 which can be used to work around the non-convergence problems.

   *** pseudo tran failed *** 
  *** gshunt ramping started *** 
  **info** gshunt ramping failed 

 trying gmath ramping method

  **info** op convergence successful with gmath ramping method

   *** monte carlo  index =            5 ***

x

 time         voltage    voltage    voltage    voltage   
             in         out0       out1       out2       
  5.0000e-09  0.000e+00  1.536e-02  9.316e-05  5.732e-05 
  1.0000e-08  0.000e+00  1.536e-02  1.100e+00  1.100e+00 
  1.5000e-08  0.000e+00  1.534e-02  1.100e+00  5.736e-05 
  2.0000e-08  0.000e+00  1.534e-02  1.100e+00  1.100e+00 
  2.5000e-08  0.000e+00  1.098e+00  1.100e+00  1.100e+00 
  3.0000e-08  0.000e+00  1.536e-02  9.306e-05  5.736e-05 
  3.5000e-08  0.000e+00  1.534e-02  9.315e-05  1.100e+00 
  4.0000e-08  0.000e+00  1.098e+00  9.312e-05  5.746e-05 
  4.5000e-08  0.000e+00  1.098e+00  9.314e-05  1.100e+00 
  5.0000e-08  0.000e+00  1.534e-02  9.315e-05  5.741e-05 
  5.5000e-08  0.000e+00  1.534e-02  9.313e-05  1.100e+00 
  6.0000e-08  0.000e+00  1.534e-02  9.312e-05  5.740e-05 
  6.5000e-08  0.000e+00  1.534e-02  9.309e-05  1.100e+00 
  7.0000e-08  0.000e+00  1.534e-02  9.316e-05  5.745e-05 
  7.5000e-08  0.000e+00  1.534e-02  9.313e-05  5.732e-05 
  8.0000e-08  0.000e+00  1.534e-02  9.311e-05  5.734e-05 
y
x

 time         voltage    voltage    voltage    voltage   
             out3       out4       out5       out6       
  5.0000e-09  1.178e-04  1.100e+00  1.099e+00  1.397e-04 
  1.0000e-08  1.179e-04  1.100e+00  1.099e+00  1.398e-04 
  1.5000e-08  1.178e-04  1.100e+00  1.099e+00  1.396e-04 
  2.0000e-08  1.178e-04  1.100e+00  1.099e+00  1.396e-04 
  2.5000e-08  1.100e+00  1.100e+00  1.099e+00  1.397e-04 
  3.0000e-08  1.100e+00  1.100e+00  1.099e+00  1.100e+00 
  3.5000e-08  1.100e+00  1.100e+00  1.099e+00  1.397e-04 
  4.0000e-08  1.100e+00  1.100e+00  1.099e+00  1.397e-04 
  4.5000e-08  1.100e+00  1.100e+00  1.099e+00  1.397e-04 
  5.0000e-08  1.100e+00  1.100e+00  1.099e+00  1.397e-04 
  5.5000e-08  1.100e+00  1.100e+00  1.099e+00  1.100e+00 
  6.0000e-08  1.100e+00  1.100e+00  1.099e+00  1.100e+00 
  6.5000e-08  1.100e+00  1.100e+00  1.099e+00  1.100e+00 
  7.0000e-08  1.100e+00  1.100e+00  1.099e+00  1.100e+00 
  7.5000e-08  1.100e+00  1.100e+00  1.099e+00  1.100e+00 
  8.0000e-08  1.100e+00  1.100e+00  1.099e+00  1.100e+00 
y
x

 time         voltage   
             out7       
  5.0000e-09  3.252e-04 
  1.0000e-08  3.267e-04 
  1.5000e-08  1.099e+00 
  2.0000e-08  1.099e+00 
  2.5000e-08  1.099e+00 
  3.0000e-08  1.099e+00 
  3.5000e-08  3.241e-04 
  4.0000e-08  3.231e-04 
  4.5000e-08  1.099e+00 
  5.0000e-08  1.099e+00 
  5.5000e-08  3.230e-04 
  6.0000e-08  3.241e-04 
  6.5000e-08  3.241e-04 
  7.0000e-08  3.230e-04 
  7.5000e-08  3.267e-04 
  8.0000e-08  3.267e-04 
y

          ***** job concluded
 **error** L54: Effective channel length <= 0 for 'm_i_11 (/afs/umbc.edu/users/b/r/brianw5/home/CMPE691/hw8/all_gates:11)'

          ***** job aborted
 no convergence with standard algorithm,  trying damped pseudo-transient

 
 **info** number of iteration exceeds min(7000, 20*itl1)= 4000 in pseudo
 tran process (converge=1 process). Usually this happens when the
 models are discontinous, or there are uninitialized bi-stable cells
 (flip-flop) in the circuit. By setting options dcon=-1 and converge=-1
 you can disable auto convergence process. Retry the run, non-convergence
 diagnostics will provide useful information about the nodes and devices
 which can be used to work around the non-convergence problems.

   *** pseudo tran failed *** 
  *** gshunt ramping started *** 
  **info** gshunt ramping failed 

 trying gmath ramping method

  **info** op convergence successful with gmath ramping method

   *** monte carlo  index =            7 ***

x

 time         voltage    voltage    voltage    voltage   
             in         out0       out1       out2       
  5.0000e-09  0.000e+00  9.635e-06  1.245e-05  1.100e+00 
  1.0000e-08  0.000e+00  9.635e-06  1.241e-05  2.890e-05 
  1.5000e-08  0.000e+00  9.695e-06  1.245e-05  2.893e-05 
  2.0000e-08  0.000e+00  9.635e-06  1.246e-05  1.100e+00 
  2.5000e-08  0.000e+00  9.677e-06  1.246e-05  1.100e+00 
  3.0000e-08  0.000e+00  9.631e-06  1.246e-05  2.892e-05 
  3.5000e-08  0.000e+00  9.630e-06  1.243e-05  1.100e+00 
  4.0000e-08  0.000e+00  9.606e-06  1.247e-05  2.889e-05 
  4.5000e-08  0.000e+00  9.685e-06  1.245e-05  2.892e-05 
  5.0000e-08  0.000e+00  9.628e-06  1.246e-05  1.100e+00 
  5.5000e-08  0.000e+00  9.615e-06  1.241e-05  2.892e-05 
  6.0000e-08  0.000e+00  9.632e-06  1.242e-05  2.889e-05 
  6.5000e-08  0.000e+00  9.636e-06  1.246e-05  2.895e-05 
  7.0000e-08  0.000e+00  9.687e-06  1.246e-05  1.100e+00 
  7.5000e-08  0.000e+00  9.600e-06  1.245e-05  2.893e-05 
  8.0000e-08  0.000e+00  9.653e-06  1.246e-05  2.890e-05 
y
x

 time         voltage    voltage    voltage    voltage   
             out3       out4       out5       out6       
  5.0000e-09  1.100e+00  1.100e+00  1.534e-03  2.404e-05 
  1.0000e-08  1.100e+00  1.100e+00  1.534e-03  2.405e-05 
  1.5000e-08  2.806e-05  1.118e-01  1.538e-03  2.374e-05 
  2.0000e-08  2.801e-05  1.118e-01  1.538e-03  2.408e-05 
  2.5000e-08  2.805e-05  1.118e-01  1.535e-03  2.408e-05 
  3.0000e-08  2.805e-05  1.118e-01  1.538e-03  2.394e-05 
  3.5000e-08  2.805e-05  1.100e+00  1.534e-03  2.404e-05 
  4.0000e-08  2.805e-05  1.100e+00  1.538e-03  2.401e-05 
  4.5000e-08  2.803e-05  1.118e-01  1.534e-03  2.410e-05 
  5.0000e-08  2.819e-05  1.118e-01  1.538e-03  2.414e-05 
  5.5000e-08  2.800e-05  1.100e+00  1.534e-03  2.406e-05 
  6.0000e-08  2.805e-05  1.100e+00  1.538e-03  2.419e-05 
  6.5000e-08  2.804e-05  1.118e-01  1.534e-03  2.401e-05 
  7.0000e-08  2.807e-05  1.118e-01  1.538e-03  1.100e+00 
  7.5000e-08  2.804e-05  1.118e-01  1.534e-03  2.406e-05 
  8.0000e-08  2.804e-05  1.118e-01  1.534e-03  2.426e-05 
y
x

 time         voltage   
             out7       
  5.0000e-09  1.100e+00 
  1.0000e-08  1.100e+00 
  1.5000e-08  1.100e+00 
  2.0000e-08  1.100e+00 
  2.5000e-08  1.100e+00 
  3.0000e-08  2.003e-04 
  3.5000e-08  2.002e-04 
  4.0000e-08  2.002e-04 
  4.5000e-08  2.002e-04 
  5.0000e-08  2.002e-04 
  5.5000e-08  2.002e-04 
  6.0000e-08  2.002e-04 
  6.5000e-08  2.002e-04 
  7.0000e-08  2.003e-04 
  7.5000e-08  2.002e-04 
  8.0000e-08  2.002e-04 
y

          ***** job concluded

   *** monte carlo  index =            8 ***

x

 time         voltage    voltage    voltage    voltage   
             in         out0       out1       out2       
  5.0000e-09  0.000e+00  6.365e-05  1.552e-04  6.177e-04 
  1.0000e-08  0.000e+00  6.365e-05  1.100e+00  6.177e-04 
  1.5000e-08  0.000e+00  6.365e-05  1.552e-04  6.177e-04 
  2.0000e-08  0.000e+00  6.365e-05  1.552e-04  6.177e-04 
  2.5000e-08  0.000e+00  6.366e-05  1.552e-04  6.177e-04 
  3.0000e-08  0.000e+00  1.100e+00  1.551e-04  6.177e-04 
  3.5000e-08  0.000e+00  1.100e+00  1.552e-04  6.177e-04 
  4.0000e-08  0.000e+00  6.365e-05  1.552e-04  6.176e-04 
  4.5000e-08  0.000e+00  6.365e-05  1.552e-04  6.177e-04 
  5.0000e-08  0.000e+00  6.366e-05  1.553e-04  6.177e-04 
  5.5000e-08  0.000e+00  1.100e+00  1.552e-04  6.177e-04 
  6.0000e-08  0.000e+00  6.365e-05  1.552e-04  6.176e-04 
  6.5000e-08  0.000e+00  6.366e-05  1.552e-04  6.177e-04 
  7.0000e-08  0.000e+00  6.366e-05  1.552e-04  6.177e-04 
  7.5000e-08  0.000e+00  6.366e-05  1.552e-04  6.177e-04 
  8.0000e-08  0.000e+00  6.365e-05  1.552e-04  6.177e-04 
y
x

 time         voltage    voltage    voltage    voltage   
             out3       out4       out5       out6       
  5.0000e-09  3.820e-01  1.096e-03  1.479e-02  1.100e+00 
  1.0000e-08  3.820e-01  1.100e+00  1.479e-02  1.100e+00 
  1.5000e-08  3.820e-01  1.096e-03  1.479e-02  1.100e+00 
  2.0000e-08  3.820e-01  1.096e-03  1.479e-02  1.100e+00 
  2.5000e-08  3.820e-01  1.100e+00  1.479e-02  5.263e-04 
  3.0000e-08  3.820e-01  1.096e-03  1.100e+00  1.100e+00 
  3.5000e-08  3.820e-01  1.096e-03  1.100e+00  5.331e-04 
  4.0000e-08  3.820e-01  1.096e-03  1.100e+00  5.263e-04 
  4.5000e-08  3.820e-01  1.100e+00  1.479e-02  5.263e-04 
  5.0000e-08  3.820e-01  1.096e-03  1.479e-02  1.100e+00 
  5.5000e-08  3.820e-01  1.096e-03  1.100e+00  5.330e-04 
  6.0000e-08  3.820e-01  1.096e-03  1.100e+00  5.263e-04 
  6.5000e-08  3.820e-01  1.096e-03  1.100e+00  5.263e-04 
  7.0000e-08  3.820e-01  1.096e-03  1.100e+00  5.330e-04 
  7.5000e-08  3.820e-01  1.096e-03  1.479e-02  5.331e-04 
  8.0000e-08  3.820e-01  1.096e-03  1.479e-02  5.331e-04 
y
x

 time         voltage   
             out7       
  5.0000e-09  1.256e-04 
  1.0000e-08  1.256e-04 
  1.5000e-08  1.257e-04 
  2.0000e-08  1.256e-04 
  2.5000e-08  1.100e+00 
  3.0000e-08  1.256e-04 
  3.5000e-08  1.100e+00 
  4.0000e-08  1.256e-04 
  4.5000e-08  1.100e+00 
  5.0000e-08  1.256e-04 
  5.5000e-08  1.256e-04 
  6.0000e-08  1.256e-04 
  6.5000e-08  1.256e-04 
  7.0000e-08  1.257e-04 
  7.5000e-08  1.256e-04 
  8.0000e-08  1.256e-04 
y

          ***** job concluded
1****** HSPICE -- L-2016.06-SP2-2 linux64 (Jan 24 2017) ******                  
 ******  
 **puf spice file**

 ****** job statistics summary tnom=  25.000 temp=  80.000 ******
  
  
 ******  Machine Information  ******
 CPU:
 model name	: Intel(R) Xeon(R) CPU E5-2680 v2 @ 2.80GHz
 cpu MHz	: 2800.000
  
 OS:
 Linux version 3.10.0-693.5.2.el7.x86_64 (builder@kbuilder.dev.centos.org) (gcc version 4.8.5 20150623 (Red Hat 4.8.5-16) (GCC) ) #1 SMP Fri Oct 20 20:32:50 UTC 2017


  ******  HSPICE Threads Information  ******

  Command Line Threads Count :     1
  Available CPU Count        :     8
  Actual Threads Count       :     1


  ******  Circuit Statistics  ******
  # nodes       =   24083 # elements   =    5362
  # resistors   =       0 # capacitors =       0 # inductors   =       0
  # mutual_inds =       0 # vccs       =       0 # vcvs        =       0
  # cccs        =       0 # ccvs       =       0 # volt_srcs   =      18
  # curr_srcs   =       0 # diodes     =       0 # bjts        =       0
  # jfets       =       0 # mosfets    =    5344 # U elements  =       0
  # T elements  =       0 # W elements =       0 # B elements  =       0
  # S elements  =       0 # P elements =       0 # va device   =       0
  # vector_srcs =       0 # N elements =       0


  ******  Runtime Statistics (seconds)  ******

  analysis           time    # points   tot. iter  conv.iter
  op point         657.44           1       28359
  transient       2944.28         128      638064      186293 rev=      6498
  readin             0.02
  errchk             0.41
  setup              0.10
  output             0.00


           peak memory used        320.04 megabytes
           total cpu time         3602.46 seconds
           total elapsed time     3659.98 seconds
           job started at     22:05:51 11/29/2017
           job ended   at     23:06:51 11/29/2017


 lic: Release hspice token(s) 
 lic: total license checkout elapse time:        0.46(s)
